warn: The `get_runtime_isa` function is deprecated. Please migrate away from using this function.
warn: The se.py script is deprecated. It will be removed in future releases of  gem5.
warn: The `get_runtime_isa` function is deprecated. Please migrate away from using this function.
Global frequency set at 1000000000000 ticks per second
src/base/statistics.hh:279: warn: One of the stats is a legacy stat. Legacy stat is a stat that does not belong to any statistics::Group. Legacy stat is deprecated.
src/base/remote_gdb.cc:418: warn: Sockets disabled, not accepting gdb connections
src/sim/process.cc:396: warn: Checkpoints for pipes, device drivers and sockets do not work.
gem5 Simulator System.  https://www.gem5.org
gem5 is copyrighted software; use the --copyright option for details.

gem5 version 23.0.0.1
gem5 compiled Apr  6 2026 01:50:35
gem5 started Apr  6 2026 05:43:39
gem5 executing on b49ce2a326be, pid 136082
command line: /opt/gem5/build/X86/gem5.opt --outdir=/workspace/results_l3/1MB/policy1Config1/gcc /workspace/configs/run_spec_l3.py --rp-type=DSBRP --l3-size=1MB --l3-assoc=16 --cpu-type=DerivO3CPU --cmd=./sgcc_base.gem5-x86 '--options=gcc-pp.c -O5 -fipa-pta -o gcc-pp.opts-O5_-fipa-pta.s' --mem-size=8GB --maxinst=250000000 --caches --l2cache --l1d_size=32kB --l1i_size=32kB --l1d_assoc=8 --l1i_assoc=8 --l2_size=256kB --l2_assoc=8 --checkpoint-restore=1 --checkpoint-dir=/workspace/checkpoints/gcc/m5out --restore-with-cpu=AtomicSimpleCPU --standard-switch=1 --warmup-insts=50000000 --dsb-enable-bypass=false --dsb-enable-aging=true --dsb-bypass-counter=6 --dsb-virtual-bypass-counter=4 --dsb-random-promotion=0 --dsb-minimum-bypass-counter=8

info: Standard input is not a terminal, disabling listeners.
Replacement policy: DSBRP
L1I size: 32kB, assoc: 8
L1D size: 32kB, assoc: 8
L2 size: 256kB, assoc: 8
L3 size: 1MB, L3 assoc: 16
Switch at instruction count:1
src/sim/simulate.cc:194: info: Entering event queue @ 27766339396500.  Starting simulation...
src/sim/simulate.cc:194: info: Entering event queue @ 27766339398500.  Starting simulation...
src/sim/power_state.cc:105: warn: PowerState: Already in the requested power state, request ignored
Switched CPUS @ tick 27766339398500
switching cpus
Switch at instruction count:50000000
src/sim/simulate.cc:194: info: Entering event queue @ 27766339399000.  Starting simulation...
[DSB @ 100000 calls] bc=8 isBypassOn=false| real=0 virt=6236 notrack=93763 | touchRes=4750(eff=0,ineff=4750) resetRes=520(ineff=0,eff=520) | bc++=4750 bc--=520 inv=187
src/sim/simulate.cc:194: info: Entering event queue @ 27884709053500.  Starting simulation...
Switching CPUS @ tick 27884709053500
Simulation ends instruction count:250000000
switching cpus
**** REAL SIMULATION ****
src/sim/simulate.cc:194: info: Entering event queue @ 27884709273500.  Starting simulation...
[DSB @ 200000 calls] bc=8 isBypassOn=false| real=0 virt=12631 notrack=187368 | touchRes=9873(eff=0,ineff=9873) resetRes=1033(ineff=0,eff=1033) | bc++=9873 bc--=1033 inv=509
[DSB @ 300000 calls] bc=8 isBypassOn=false| real=0 virt=19114 notrack=280885 | touchRes=14734(eff=0,ineff=14734) resetRes=1803(ineff=0,eff=1803) | bc++=14734 bc--=1803 inv=888
[DSB @ 400000 calls] bc=8 isBypassOn=false| real=0 virt=25311 notrack=374688 | touchRes=19556(eff=0,ineff=19556) resetRes=2376(ineff=0,eff=2376) | bc++=19556 bc--=2376 inv=1191
[DSB @ 500000 calls] bc=8 isBypassOn=false| real=0 virt=31497 notrack=468502 | touchRes=24107(eff=0,ineff=24107) resetRes=3154(ineff=0,eff=3154) | bc++=24107 bc--=3154 inv=1549
[DSB @ 600000 calls] bc=8 isBypassOn=false| real=0 virt=37724 notrack=562275 | touchRes=29271(eff=0,ineff=29271) resetRes=3590(ineff=0,eff=3590) | bc++=29271 bc--=3590 inv=1790
Exiting @ tick 28066300980000 because a thread reached the max instruction count
