warn: The `get_runtime_isa` function is deprecated. Please migrate away from using this function.
warn: The se.py script is deprecated. It will be removed in future releases of  gem5.
warn: The `get_runtime_isa` function is deprecated. Please migrate away from using this function.
Global frequency set at 1000000000000 ticks per second
src/base/statistics.hh:279: warn: One of the stats is a legacy stat. Legacy stat is a stat that does not belong to any statistics::Group. Legacy stat is deprecated.
src/base/remote_gdb.cc:418: warn: Sockets disabled, not accepting gdb connections
src/sim/process.cc:396: warn: Checkpoints for pipes, device drivers and sockets do not work.
gem5 Simulator System.  https://www.gem5.org
gem5 is copyrighted software; use the --copyright option for details.

gem5 version 23.0.0.1
gem5 compiled Apr  6 2026 01:50:35
gem5 started Apr  6 2026 13:56:41
gem5 executing on b49ce2a326be, pid 222192
command line: /opt/gem5/build/X86/gem5.opt --outdir=/workspace/results_l3/2MB/policy1Config1/lbm /workspace/configs/run_spec_l3.py --rp-type=DSBRP --l3-size=2MB --l3-assoc=16 --cpu-type=DerivO3CPU --cmd=./lbm_s_base.gem5-x86 '--options=2000 reference.dat 0 0 200_200_260_ldc.of' --mem-size=8GB --maxinst=250000000 --caches --l2cache --l1d_size=32kB --l1i_size=32kB --l1d_assoc=8 --l1i_assoc=8 --l2_size=256kB --l2_assoc=8 --checkpoint-restore=1 --checkpoint-dir=/workspace/checkpoints/lbm/m5out --restore-with-cpu=AtomicSimpleCPU --standard-switch=1 --warmup-insts=50000000 --dsb-enable-bypass=false --dsb-enable-aging=true --dsb-bypass-counter=6 --dsb-virtual-bypass-counter=4 --dsb-random-promotion=0 --dsb-minimum-bypass-counter=8

info: Standard input is not a terminal, disabling listeners.
Replacement policy: DSBRP
L1I size: 32kB, assoc: 8
L1D size: 32kB, assoc: 8
L2 size: 256kB, assoc: 8
L3 size: 2MB, L3 assoc: 16
Switch at instruction count:1
src/sim/simulate.cc:194: info: Entering event queue @ 25728322212500.  Starting simulation...
src/sim/simulate.cc:194: info: Entering event queue @ 25728322214000.  Starting simulation...
src/sim/power_state.cc:105: warn: PowerState: Already in the requested power state, request ignored
Switched CPUS @ tick 25728322214000
switching cpus
Switch at instruction count:50000000
src/sim/simulate.cc:194: info: Entering event queue @ 25728322215000.  Starting simulation...
[DSB @ 100000 calls] bc=8 isBypassOn=false| real=0 virt=6236 notrack=93763 | touchRes=5489(eff=0,ineff=5489) resetRes=0(ineff=0,eff=0) | bc++=5489 bc--=0 inv=0
[DSB @ 200000 calls] bc=8 isBypassOn=false| real=0 virt=12537 notrack=187462 | touchRes=11291(eff=0,ineff=11291) resetRes=0(ineff=0,eff=0) | bc++=11291 bc--=0 inv=0
[DSB @ 300000 calls] bc=8 isBypassOn=false| real=0 virt=18724 notrack=281275 | touchRes=16987(eff=0,ineff=16987) resetRes=0(ineff=0,eff=0) | bc++=16987 bc--=0 inv=0
[DSB @ 400000 calls] bc=8 isBypassOn=false| real=0 virt=24930 notrack=375069 | touchRes=22659(eff=0,ineff=22659) resetRes=0(ineff=0,eff=0) | bc++=22659 bc--=0 inv=0
[DSB @ 500000 calls] bc=8 isBypassOn=false| real=0 virt=31246 notrack=468753 | touchRes=28498(eff=0,ineff=28498) resetRes=0(ineff=0,eff=0) | bc++=28498 bc--=0 inv=0
[DSB @ 600000 calls] bc=8 isBypassOn=false| real=0 virt=37490 notrack=562509 | touchRes=34259(eff=0,ineff=34259) resetRes=0(ineff=0,eff=0) | bc++=34259 bc--=0 inv=0
[DSB @ 700000 calls] bc=8 isBypassOn=false| real=0 virt=43821 notrack=656178 | touchRes=40056(eff=0,ineff=40056) resetRes=0(ineff=0,eff=0) | bc++=40056 bc--=0 inv=0
[DSB @ 800000 calls] bc=8 isBypassOn=false| real=0 virt=50188 notrack=749811 | touchRes=45906(eff=0,ineff=45906) resetRes=0(ineff=0,eff=0) | bc++=45906 bc--=0 inv=0
[DSB @ 900000 calls] bc=8 isBypassOn=false| real=0 virt=56528 notrack=843471 | touchRes=51716(eff=0,ineff=51716) resetRes=0(ineff=0,eff=0) | bc++=51716 bc--=0 inv=0
[DSB @ 1000000 calls] bc=8 isBypassOn=false| real=0 virt=62669 notrack=937330 | touchRes=57348(eff=0,ineff=57348) resetRes=0(ineff=0,eff=0) | bc++=57348 bc--=0 inv=0
src/sim/simulate.cc:194: info: Entering event queue @ 25953224341500.  Starting simulation...
Switching CPUS @ tick 25953224341500
Simulation ends instruction count:250000000
switching cpus
**** REAL SIMULATION ****
src/sim/simulate.cc:194: info: Entering event queue @ 25953224470250.  Starting simulation...
[DSB @ 1100000 calls] bc=8 isBypassOn=false| real=0 virt=68939 notrack=1031060 | touchRes=63116(eff=0,ineff=63116) resetRes=0(ineff=0,eff=0) | bc++=63116 bc--=0 inv=0
[DSB @ 1200000 calls] bc=8 isBypassOn=false| real=0 virt=75264 notrack=1124735 | touchRes=68957(eff=0,ineff=68957) resetRes=0(ineff=0,eff=0) | bc++=68957 bc--=0 inv=0
[DSB @ 1300000 calls] bc=8 isBypassOn=false| real=0 virt=81428 notrack=1218571 | touchRes=74687(eff=0,ineff=74687) resetRes=0(ineff=0,eff=0) | bc++=74687 bc--=0 inv=0
[DSB @ 1400000 calls] bc=8 isBypassOn=false| real=0 virt=87625 notrack=1312374 | touchRes=80388(eff=0,ineff=80388) resetRes=0(ineff=0,eff=0) | bc++=80388 bc--=0 inv=0
[DSB @ 1500000 calls] bc=8 isBypassOn=false| real=0 virt=93978 notrack=1406021 | touchRes=86209(eff=0,ineff=86209) resetRes=0(ineff=0,eff=0) | bc++=86209 bc--=0 inv=0
[DSB @ 1600000 calls] bc=8 isBypassOn=false| real=0 virt=100346 notrack=1499653 | touchRes=92005(eff=0,ineff=92005) resetRes=0(ineff=0,eff=0) | bc++=92005 bc--=0 inv=0
[DSB @ 1700000 calls] bc=8 isBypassOn=false| real=0 virt=106625 notrack=1593374 | touchRes=97780(eff=0,ineff=97780) resetRes=0(ineff=0,eff=0) | bc++=97780 bc--=0 inv=0
[DSB @ 1800000 calls] bc=8 isBypassOn=false| real=0 virt=112835 notrack=1687164 | touchRes=103488(eff=0,ineff=103488) resetRes=0(ineff=0,eff=0) | bc++=103488 bc--=0 inv=0
[DSB @ 1900000 calls] bc=8 isBypassOn=false| real=0 virt=119134 notrack=1780865 | touchRes=109275(eff=0,ineff=109275) resetRes=0(ineff=0,eff=0) | bc++=109275 bc--=0 inv=0
[DSB @ 2000000 calls] bc=8 isBypassOn=false| real=0 virt=125441 notrack=1874558 | touchRes=115044(eff=0,ineff=115044) resetRes=0(ineff=0,eff=0) | bc++=115044 bc--=0 inv=0
[DSB @ 2100000 calls] bc=8 isBypassOn=false| real=0 virt=131713 notrack=1968286 | touchRes=120826(eff=0,ineff=120826) resetRes=0(ineff=0,eff=0) | bc++=120826 bc--=0 inv=0
[DSB @ 2200000 calls] bc=8 isBypassOn=false| real=0 virt=138002 notrack=2061997 | touchRes=126562(eff=0,ineff=126562) resetRes=0(ineff=0,eff=0) | bc++=126562 bc--=0 inv=0
[DSB @ 2300000 calls] bc=8 isBypassOn=false| real=0 virt=144174 notrack=2155825 | touchRes=132218(eff=0,ineff=132218) resetRes=0(ineff=0,eff=0) | bc++=132218 bc--=0 inv=0
[DSB @ 2400000 calls] bc=8 isBypassOn=false| real=0 virt=150379 notrack=2249620 | touchRes=137946(eff=0,ineff=137946) resetRes=0(ineff=0,eff=0) | bc++=137946 bc--=0 inv=0
[DSB @ 2500000 calls] bc=8 isBypassOn=false| real=0 virt=156612 notrack=2343387 | touchRes=143663(eff=0,ineff=143663) resetRes=0(ineff=0,eff=0) | bc++=143663 bc--=0 inv=0
[DSB @ 2600000 calls] bc=8 isBypassOn=false| real=0 virt=162897 notrack=2437102 | touchRes=149442(eff=0,ineff=149442) resetRes=0(ineff=0,eff=0) | bc++=149442 bc--=0 inv=0
[DSB @ 2700000 calls] bc=8 isBypassOn=false| real=0 virt=169131 notrack=2530868 | touchRes=155183(eff=0,ineff=155183) resetRes=0(ineff=0,eff=0) | bc++=155183 bc--=0 inv=0
[DSB @ 2800000 calls] bc=8 isBypassOn=false| real=0 virt=175487 notrack=2624512 | touchRes=161004(eff=0,ineff=161004) resetRes=0(ineff=0,eff=0) | bc++=161004 bc--=0 inv=0
[DSB @ 2900000 calls] bc=8 isBypassOn=false| real=0 virt=181868 notrack=2718131 | touchRes=166847(eff=0,ineff=166847) resetRes=0(ineff=0,eff=0) | bc++=166847 bc--=0 inv=0
[DSB @ 3000000 calls] bc=8 isBypassOn=false| real=0 virt=188060 notrack=2811939 | touchRes=172578(eff=0,ineff=172578) resetRes=0(ineff=0,eff=0) | bc++=172578 bc--=0 inv=0
[DSB @ 3100000 calls] bc=8 isBypassOn=false| real=0 virt=194267 notrack=2905732 | touchRes=178267(eff=0,ineff=178267) resetRes=0(ineff=0,eff=0) | bc++=178267 bc--=0 inv=0
[DSB @ 3200000 calls] bc=8 isBypassOn=false| real=0 virt=200453 notrack=2999546 | touchRes=183958(eff=0,ineff=183958) resetRes=0(ineff=0,eff=0) | bc++=183958 bc--=0 inv=0
[DSB @ 3300000 calls] bc=8 isBypassOn=false| real=0 virt=206527 notrack=3093472 | touchRes=189614(eff=0,ineff=189614) resetRes=0(ineff=0,eff=0) | bc++=189614 bc--=0 inv=0
[DSB @ 3400000 calls] bc=8 isBypassOn=false| real=0 virt=212745 notrack=3187254 | touchRes=195296(eff=0,ineff=195296) resetRes=0(ineff=0,eff=0) | bc++=195296 bc--=0 inv=0
[DSB @ 3500000 calls] bc=8 isBypassOn=false| real=0 virt=218946 notrack=3281053 | touchRes=201009(eff=0,ineff=201009) resetRes=0(ineff=0,eff=0) | bc++=201009 bc--=0 inv=0
[DSB @ 3600000 calls] bc=8 isBypassOn=false| real=0 virt=225189 notrack=3374810 | touchRes=206724(eff=0,ineff=206724) resetRes=0(ineff=0,eff=0) | bc++=206724 bc--=0 inv=0
[DSB @ 3700000 calls] bc=8 isBypassOn=false| real=0 virt=231350 notrack=3468649 | touchRes=212396(eff=0,ineff=212396) resetRes=0(ineff=0,eff=0) | bc++=212396 bc--=0 inv=0
[DSB @ 3800000 calls] bc=8 isBypassOn=false| real=0 virt=237600 notrack=3562399 | touchRes=218166(eff=0,ineff=218166) resetRes=0(ineff=0,eff=0) | bc++=218166 bc--=0 inv=0
[DSB @ 3900000 calls] bc=8 isBypassOn=false| real=0 virt=243934 notrack=3656065 | touchRes=223957(eff=0,ineff=223957) resetRes=0(ineff=0,eff=0) | bc++=223957 bc--=0 inv=0
[DSB @ 4000000 calls] bc=8 isBypassOn=false| real=0 virt=250247 notrack=3749752 | touchRes=229758(eff=0,ineff=229758) resetRes=0(ineff=0,eff=0) | bc++=229758 bc--=0 inv=0
[DSB @ 4100000 calls] bc=8 isBypassOn=false| real=0 virt=256505 notrack=3843494 | touchRes=235548(eff=0,ineff=235548) resetRes=0(ineff=0,eff=0) | bc++=235548 bc--=0 inv=0
[DSB @ 4200000 calls] bc=8 isBypassOn=false| real=0 virt=262701 notrack=3937298 | touchRes=241234(eff=0,ineff=241234) resetRes=0(ineff=0,eff=0) | bc++=241234 bc--=0 inv=0
[DSB @ 4300000 calls] bc=8 isBypassOn=false| real=0 virt=268983 notrack=4031016 | touchRes=247022(eff=0,ineff=247022) resetRes=0(ineff=0,eff=0) | bc++=247022 bc--=0 inv=0
[DSB @ 4400000 calls] bc=8 isBypassOn=false| real=0 virt=275272 notrack=4124727 | touchRes=252770(eff=0,ineff=252770) resetRes=0(ineff=0,eff=0) | bc++=252770 bc--=0 inv=0
[DSB @ 4500000 calls] bc=8 isBypassOn=false| real=0 virt=281316 notrack=4218683 | touchRes=258383(eff=0,ineff=258383) resetRes=0(ineff=0,eff=0) | bc++=258383 bc--=0 inv=0
[DSB @ 4600000 calls] bc=8 isBypassOn=false| real=0 virt=287657 notrack=4312342 | touchRes=264204(eff=0,ineff=264204) resetRes=0(ineff=0,eff=0) | bc++=264204 bc--=0 inv=0
[DSB @ 4700000 calls] bc=8 isBypassOn=false| real=0 virt=294152 notrack=4405847 | touchRes=270168(eff=0,ineff=270168) resetRes=0(ineff=0,eff=0) | bc++=270168 bc--=0 inv=0
[DSB @ 4800000 calls] bc=8 isBypassOn=false| real=0 virt=300468 notrack=4499531 | touchRes=275955(eff=0,ineff=275955) resetRes=0(ineff=0,eff=0) | bc++=275955 bc--=0 inv=0
[DSB @ 4900000 calls] bc=8 isBypassOn=false| real=0 virt=306727 notrack=4593272 | touchRes=281692(eff=0,ineff=281692) resetRes=0(ineff=0,eff=0) | bc++=281692 bc--=0 inv=0
[DSB @ 5000000 calls] bc=8 isBypassOn=false| real=0 virt=312971 notrack=4687028 | touchRes=287445(eff=0,ineff=287445) resetRes=0(ineff=0,eff=0) | bc++=287445 bc--=0 inv=0
[DSB @ 5100000 calls] bc=8 isBypassOn=false| real=0 virt=319179 notrack=4780820 | touchRes=293161(eff=0,ineff=293161) resetRes=0(ineff=0,eff=0) | bc++=293161 bc--=0 inv=0
[DSB @ 5200000 calls] bc=8 isBypassOn=false| real=0 virt=325415 notrack=4874584 | touchRes=298884(eff=0,ineff=298884) resetRes=0(ineff=0,eff=0) | bc++=298884 bc--=0 inv=3
[DSB @ 5300000 calls] bc=8 isBypassOn=false| real=0 virt=331566 notrack=4968433 | touchRes=304596(eff=0,ineff=304596) resetRes=0(ineff=0,eff=0) | bc++=304596 bc--=0 inv=3
[DSB @ 5400000 calls] bc=8 isBypassOn=false| real=0 virt=337769 notrack=5062230 | touchRes=310331(eff=0,ineff=310331) resetRes=0(ineff=0,eff=0) | bc++=310331 bc--=0 inv=3
[DSB @ 5500000 calls] bc=8 isBypassOn=false| real=0 virt=344025 notrack=5155974 | touchRes=316105(eff=0,ineff=316105) resetRes=0(ineff=0,eff=0) | bc++=316105 bc--=0 inv=3
[DSB @ 5600000 calls] bc=8 isBypassOn=false| real=0 virt=350252 notrack=5249747 | touchRes=321872(eff=0,ineff=321872) resetRes=0(ineff=0,eff=0) | bc++=321872 bc--=0 inv=4
[DSB @ 5700000 calls] bc=8 isBypassOn=false| real=0 virt=356411 notrack=5343588 | touchRes=327525(eff=0,ineff=327525) resetRes=0(ineff=0,eff=0) | bc++=327525 bc--=0 inv=4
[DSB @ 5800000 calls] bc=8 isBypassOn=false| real=0 virt=362832 notrack=5437167 | touchRes=333394(eff=0,ineff=333394) resetRes=0(ineff=0,eff=0) | bc++=333394 bc--=0 inv=4
[DSB @ 5900000 calls] bc=8 isBypassOn=false| real=0 virt=369060 notrack=5530939 | touchRes=339149(eff=0,ineff=339149) resetRes=0(ineff=0,eff=0) | bc++=339149 bc--=0 inv=4
[DSB @ 6000000 calls] bc=8 isBypassOn=false| real=0 virt=375291 notrack=5624708 | touchRes=344910(eff=0,ineff=344910) resetRes=0(ineff=0,eff=0) | bc++=344910 bc--=0 inv=4
[DSB @ 6100000 calls] bc=8 isBypassOn=false| real=0 virt=381605 notrack=5718394 | touchRes=350761(eff=0,ineff=350761) resetRes=0(ineff=0,eff=0) | bc++=350761 bc--=0 inv=4
[DSB @ 6200000 calls] bc=8 isBypassOn=false| real=0 virt=387861 notrack=5812138 | touchRes=356532(eff=0,ineff=356532) resetRes=0(ineff=0,eff=0) | bc++=356532 bc--=0 inv=4
[DSB @ 6300000 calls] bc=8 isBypassOn=false| real=0 virt=394092 notrack=5905907 | touchRes=362271(eff=0,ineff=362271) resetRes=0(ineff=0,eff=0) | bc++=362271 bc--=0 inv=4
[DSB @ 6400000 calls] bc=8 isBypassOn=false| real=0 virt=400217 notrack=5999782 | touchRes=367939(eff=0,ineff=367939) resetRes=0(ineff=0,eff=0) | bc++=367939 bc--=0 inv=4
[DSB @ 6500000 calls] bc=8 isBypassOn=false| real=0 virt=406407 notrack=6093592 | touchRes=373647(eff=0,ineff=373647) resetRes=0(ineff=0,eff=0) | bc++=373647 bc--=0 inv=4
[DSB @ 6600000 calls] bc=8 isBypassOn=false| real=0 virt=412634 notrack=6187365 | touchRes=379445(eff=0,ineff=379445) resetRes=0(ineff=0,eff=0) | bc++=379445 bc--=0 inv=4
[DSB @ 6700000 calls] bc=8 isBypassOn=false| real=0 virt=418815 notrack=6281184 | touchRes=385193(eff=0,ineff=385193) resetRes=0(ineff=0,eff=0) | bc++=385193 bc--=0 inv=4
[DSB @ 6800000 calls] bc=8 isBypassOn=false| real=0 virt=424924 notrack=6375075 | touchRes=390847(eff=0,ineff=390847) resetRes=0(ineff=0,eff=0) | bc++=390847 bc--=0 inv=4
[DSB @ 6900000 calls] bc=8 isBypassOn=false| real=0 virt=431212 notrack=6468787 | touchRes=396666(eff=0,ineff=396666) resetRes=0(ineff=0,eff=0) | bc++=396666 bc--=0 inv=4
[DSB @ 7000000 calls] bc=8 isBypassOn=false| real=0 virt=437341 notrack=6562658 | touchRes=402314(eff=0,ineff=402314) resetRes=0(ineff=0,eff=0) | bc++=402314 bc--=0 inv=4
[DSB @ 7100000 calls] bc=8 isBypassOn=false| real=0 virt=443436 notrack=6656563 | touchRes=407931(eff=0,ineff=407931) resetRes=0(ineff=0,eff=0) | bc++=407931 bc--=0 inv=4
Exiting @ tick 26585467186500 because a thread reached the max instruction count
