warn: The `get_runtime_isa` function is deprecated. Please migrate away from using this function.
warn: The se.py script is deprecated. It will be removed in future releases of  gem5.
warn: The `get_runtime_isa` function is deprecated. Please migrate away from using this function.
Global frequency set at 1000000000000 ticks per second
src/mem/dram_interface.cc:690: warn: DRAM device capacity (8192 Mbytes) does not match the address range assigned (16384 Mbytes)
src/base/statistics.hh:279: warn: One of the stats is a legacy stat. Legacy stat is a stat that does not belong to any statistics::Group. Legacy stat is deprecated.
src/base/remote_gdb.cc:418: warn: Sockets disabled, not accepting gdb connections
src/sim/process.cc:396: warn: Checkpoints for pipes, device drivers and sockets do not work.
gem5 Simulator System.  https://www.gem5.org
gem5 is copyrighted software; use the --copyright option for details.

gem5 version 23.0.0.1
gem5 compiled Apr  6 2026 01:50:35
gem5 started Apr  6 2026 14:18:09
gem5 executing on b49ce2a326be, pid 226468
command line: /opt/gem5/build/X86/gem5.opt --outdir=/workspace/results_l3/2MB/policy1Config1/roms /workspace/configs/run_spec_l3.py --rp-type=DSBRP --l3-size=2MB --l3-assoc=16 --cpu-type=DerivO3CPU --cmd=./sroms_base.gem5-x86 --options= --mem-size=16GB --maxinst=250000000 --caches --l2cache --l1d_size=32kB --l1i_size=32kB --l1d_assoc=8 --l1i_assoc=8 --l2_size=256kB --l2_assoc=8 --checkpoint-restore=1 --checkpoint-dir=/workspace/checkpoints/roms/m5out --restore-with-cpu=AtomicSimpleCPU --standard-switch=1 --warmup-insts=50000000 --input=ocean_benchmark3.in --dsb-enable-bypass=false --dsb-enable-aging=true --dsb-bypass-counter=6 --dsb-virtual-bypass-counter=4 --dsb-random-promotion=0 --dsb-minimum-bypass-counter=8

info: Standard input is not a terminal, disabling listeners.
Replacement policy: DSBRP
L1I size: 32kB, assoc: 8
L1D size: 32kB, assoc: 8
L2 size: 256kB, assoc: 8
L3 size: 2MB, L3 assoc: 16
Switch at instruction count:1
src/sim/simulate.cc:194: info: Entering event queue @ 26962283379000.  Starting simulation...
src/sim/power_state.cc:105: warn: PowerState: Already in the requested power state, request ignored
Switched CPUS @ tick 26962283380500
switching cpus
Switch at instruction count:50000000
src/sim/simulate.cc:194: info: Entering event queue @ 26962283380500.  Starting simulation...
[DSB @ 100000 calls] bc=8 isBypassOn=false| real=0 virt=6236 notrack=93763 | touchRes=5229(eff=0,ineff=5229) resetRes=271(ineff=0,eff=271) | bc++=5229 bc--=271 inv=24
[DSB @ 200000 calls] bc=8 isBypassOn=false| real=0 virt=12537 notrack=187462 | touchRes=10548(eff=0,ineff=10548) resetRes=601(ineff=0,eff=601) | bc++=10548 bc--=601 inv=157
[DSB @ 300000 calls] bc=8 isBypassOn=false| real=0 virt=18724 notrack=281275 | touchRes=15756(eff=0,ineff=15756) resetRes=979(ineff=0,eff=979) | bc++=15756 bc--=979 inv=297
src/sim/simulate.cc:194: info: Entering event queue @ 27116953213500.  Starting simulation...
Switching CPUS @ tick 27116953213500
Simulation ends instruction count:250000000
switching cpus
**** REAL SIMULATION ****
src/sim/simulate.cc:194: info: Entering event queue @ 27116953318500.  Starting simulation...
[DSB @ 400000 calls] bc=8 isBypassOn=false| real=0 virt=24925 notrack=375074 | touchRes=20834(eff=0,ineff=20834) resetRes=1464(ineff=0,eff=1464) | bc++=20834 bc--=1464 inv=466
[DSB @ 500000 calls] bc=8 isBypassOn=false| real=0 virt=31166 notrack=468833 | touchRes=25850(eff=0,ineff=25850) resetRes=1949(ineff=0,eff=1949) | bc++=25850 bc--=1949 inv=644
[DSB @ 600000 calls] bc=8 isBypassOn=false| real=0 virt=37348 notrack=562651 | touchRes=30943(eff=0,ineff=30943) resetRes=2363(ineff=0,eff=2363) | bc++=30943 bc--=2363 inv=779
[DSB @ 700000 calls] bc=8 isBypassOn=false| real=0 virt=43665 notrack=656334 | touchRes=36129(eff=0,ineff=36129) resetRes=2799(ineff=0,eff=2799) | bc++=36129 bc--=2799 inv=930
[DSB @ 800000 calls] bc=8 isBypassOn=false| real=0 virt=49855 notrack=750144 | touchRes=41227(eff=0,ineff=41227) resetRes=3193(ineff=0,eff=3193) | bc++=41227 bc--=3193 inv=1089
[DSB @ 900000 calls] bc=8 isBypassOn=false| real=0 virt=56149 notrack=843850 | touchRes=46441(eff=0,ineff=46441) resetRes=3584(ineff=0,eff=3584) | bc++=46441 bc--=3584 inv=1231
[DSB @ 1000000 calls] bc=8 isBypassOn=false| real=0 virt=62517 notrack=937482 | touchRes=51684(eff=0,ineff=51684) resetRes=4032(ineff=0,eff=4032) | bc++=51684 bc--=4032 inv=1404
[DSB @ 1100000 calls] bc=8 isBypassOn=false| real=0 virt=68762 notrack=1031237 | touchRes=56746(eff=0,ineff=56746) resetRes=4487(ineff=0,eff=4487) | bc++=56746 bc--=4487 inv=1559
[DSB @ 1200000 calls] bc=8 isBypassOn=false| real=0 virt=75017 notrack=1124982 | touchRes=61885(eff=0,ineff=61885) resetRes=4889(ineff=0,eff=4889) | bc++=61885 bc--=4889 inv=1723
[DSB @ 1300000 calls] bc=8 isBypassOn=false| real=0 virt=81377 notrack=1218622 | touchRes=67029(eff=0,ineff=67029) resetRes=5351(ineff=0,eff=5351) | bc++=67029 bc--=5351 inv=1890
[DSB @ 1400000 calls] bc=8 isBypassOn=false| real=0 virt=87617 notrack=1312382 | touchRes=72163(eff=0,ineff=72163) resetRes=5759(ineff=0,eff=5759) | bc++=72163 bc--=5759 inv=2063
[DSB @ 1500000 calls] bc=8 isBypassOn=false| real=0 virt=93810 notrack=1406189 | touchRes=77175(eff=0,ineff=77175) resetRes=6229(ineff=0,eff=6229) | bc++=77175 bc--=6229 inv=2205
[DSB @ 1600000 calls] bc=8 isBypassOn=false| real=0 virt=100079 notrack=1499920 | touchRes=82310(eff=0,ineff=82310) resetRes=6631(ineff=0,eff=6631) | bc++=82310 bc--=6631 inv=2358
[DSB @ 1700000 calls] bc=8 isBypassOn=false| real=0 virt=106189 notrack=1593810 | touchRes=87414(eff=0,ineff=87414) resetRes=7032(ineff=0,eff=7032) | bc++=87414 bc--=7032 inv=2510
[DSB @ 1800000 calls] bc=8 isBypassOn=false| real=0 virt=112383 notrack=1687616 | touchRes=92530(eff=0,ineff=92530) resetRes=7401(ineff=0,eff=7401) | bc++=92530 bc--=7401 inv=2652
[DSB @ 1900000 calls] bc=8 isBypassOn=false| real=0 virt=118569 notrack=1781430 | touchRes=97557(eff=0,ineff=97557) resetRes=7822(ineff=0,eff=7822) | bc++=97557 bc--=7822 inv=2815
[DSB @ 2000000 calls] bc=8 isBypassOn=false| real=0 virt=124801 notrack=1875198 | touchRes=102731(eff=0,ineff=102731) resetRes=8220(ineff=0,eff=8220) | bc++=102731 bc--=8220 inv=2994
[DSB @ 2100000 calls] bc=8 isBypassOn=false| real=0 virt=130999 notrack=1969000 | touchRes=107824(eff=0,ineff=107824) resetRes=8623(ineff=0,eff=8623) | bc++=107824 bc--=8623 inv=3158
[DSB @ 2200000 calls] bc=8 isBypassOn=false| real=0 virt=137175 notrack=2062824 | touchRes=112787(eff=0,ineff=112787) resetRes=9100(ineff=0,eff=9100) | bc++=112787 bc--=9100 inv=3347
[DSB @ 2300000 calls] bc=8 isBypassOn=false| real=0 virt=143342 notrack=2156657 | touchRes=117887(eff=0,ineff=117887) resetRes=9493(ineff=0,eff=9493) | bc++=117887 bc--=9493 inv=3497
Exiting @ tick 27297773509500 because a thread reached the max instruction count
