warn: The `get_runtime_isa` function is deprecated. Please migrate away from using this function.
warn: The se.py script is deprecated. It will be removed in future releases of  gem5.
warn: The `get_runtime_isa` function is deprecated. Please migrate away from using this function.
Global frequency set at 1000000000000 ticks per second
src/base/statistics.hh:279: warn: One of the stats is a legacy stat. Legacy stat is a stat that does not belong to any statistics::Group. Legacy stat is deprecated.
src/base/remote_gdb.cc:418: warn: Sockets disabled, not accepting gdb connections
src/sim/process.cc:396: warn: Checkpoints for pipes, device drivers and sockets do not work.
gem5 Simulator System.  https://www.gem5.org
gem5 is copyrighted software; use the --copyright option for details.

gem5 version 23.0.0.1
gem5 compiled Apr  6 2026 01:50:35
gem5 started Apr  6 2026 03:47:54
gem5 executing on b49ce2a326be, pid 115762
command line: /opt/gem5/build/X86/gem5.opt --outdir=/workspace/results_l3/1MB/policy0Config2/imagick /workspace/configs/run_spec_l3.py --rp-type=DSBRP --l3-size=1MB --l3-assoc=16 --cpu-type=DerivO3CPU --cmd=./imagick_s_base.gem5-x86 '--options=-limit disk 0 refspeed_input.tga -resize 817% -rotate -2.76 -shave 540x375 -alpha remove -auto-level -contrast-stretch 1x1% -colorspace Lab -channel R -equalize +channel -colorspace sRGB -define histogram:unique-colors=false -adaptive-blur 0x5 -despeckle -auto-gamma -adaptive-sharpen 55 -enhance -brightness-contrast 10x10 -resize 30% refspeed_output.tga' --mem-size=8GB --maxinst=250000000 --caches --l2cache --l1d_size=32kB --l1i_size=32kB --l1d_assoc=8 --l1i_assoc=8 --l2_size=256kB --l2_assoc=8 --checkpoint-restore=1 --checkpoint-dir=/workspace/checkpoints/imagick/m5out --restore-with-cpu=AtomicSimpleCPU --standard-switch=1 --warmup-insts=50000000 --dsb-enable-bypass=true --dsb-enable-aging=false --dsb-bypass-counter=6 --dsb-virtual-bypass-counter=3 --dsb-random-promotion=0 --dsb-minimum-bypass-counter=12

info: Standard input is not a terminal, disabling listeners.
Replacement policy: DSBRP
L1I size: 32kB, assoc: 8
L1D size: 32kB, assoc: 8
L2 size: 256kB, assoc: 8
L3 size: 1MB, L3 assoc: 16
Switch at instruction count:1
src/sim/simulate.cc:194: info: Entering event queue @ 26455902910500.  Starting simulation...
src/sim/power_state.cc:105: warn: PowerState: Already in the requested power state, request ignored
Switched CPUS @ tick 26455902912000
switching cpus
Switch at instruction count:50000000
src/sim/simulate.cc:194: info: Entering event queue @ 26455902912000.  Starting simulation...
[DSB @ 100000 calls] bc=0 isBypassOn=true| real=58266 virt=5203 notrack=36530 | touchRes=6605(eff=6024,ineff=581) resetRes=1031(ineff=758,eff=273) | bc++=1339 bc--=6297 inv=4758
src/sim/simulate.cc:194: info: Entering event queue @ 26549715319500.  Starting simulation...
Switching CPUS @ tick 26549715319500
Simulation ends instruction count:250000000
switching cpus
**** REAL SIMULATION ****
src/sim/simulate.cc:194: info: Entering event queue @ 26549715500750.  Starting simulation...
[DSB @ 200000 calls] bc=0 isBypassOn=true| real=138124 virt=7817 notrack=54058 | touchRes=10051(eff=9412,ineff=639) resetRes=1567(ineff=1211,eff=356) | bc++=1850 bc--=9768 inv=11393
[DSB @ 300000 calls] bc=10 isBypassOn=true| real=164534 virt=16901 notrack=118564 | touchRes=15005(eff=13649,ineff=1356) resetRes=4414(ineff=3520,eff=894) | bc++=4876 bc--=14543 inv=24111
[DSB @ 400000 calls] bc=0 isBypassOn=true| real=198945 virt=25094 notrack=175960 | touchRes=21199(eff=19359,ineff=1840) resetRes=6690(ineff=5296,eff=1394) | bc++=7136 bc--=20753 inv=37636
[DSB @ 500000 calls] bc=11 isBypassOn=true| real=223994 virt=34425 notrack=241580 | touchRes=25852(eff=23345,ineff=2507) resetRes=9056(ineff=7119,eff=1937) | bc++=9626 bc--=25282 inv=50620
[DSB @ 600000 calls] bc=0 isBypassOn=true| real=253517 virt=43100 notrack=303382 | touchRes=32157(eff=29242,ineff=2915) resetRes=10248(ineff=7874,eff=2374) | bc++=10789 bc--=31616 inv=62280
[DSB @ 700000 calls] bc=0 isBypassOn=true| real=281131 virt=52163 notrack=366705 | touchRes=36604(eff=33030,ineff=3574) resetRes=12398(ineff=9512,eff=2886) | bc++=13086 bc--=35916 inv=75645
Exiting @ tick 26657236275000 because a thread reached the max instruction count
