warn: The `get_runtime_isa` function is deprecated. Please migrate away from using this function.
warn: The se.py script is deprecated. It will be removed in future releases of  gem5.
warn: The `get_runtime_isa` function is deprecated. Please migrate away from using this function.
Global frequency set at 1000000000000 ticks per second
src/base/statistics.hh:279: warn: One of the stats is a legacy stat. Legacy stat is a stat that does not belong to any statistics::Group. Legacy stat is deprecated.
src/base/remote_gdb.cc:418: warn: Sockets disabled, not accepting gdb connections
src/sim/process.cc:396: warn: Checkpoints for pipes, device drivers and sockets do not work.
gem5 Simulator System.  https://www.gem5.org
gem5 is copyrighted software; use the --copyright option for details.

gem5 version 23.0.0.1
gem5 compiled Apr  6 2026 01:50:35
gem5 started Apr  6 2026 14:18:09
gem5 executing on b49ce2a326be, pid 226466
command line: /opt/gem5/build/X86/gem5.opt --outdir=/workspace/results_l3/2MB/policy1Config1/cam4 /workspace/configs/run_spec_l3.py --rp-type=DSBRP --l3-size=2MB --l3-assoc=16 --cpu-type=DerivO3CPU --cmd=./cam4_s_base.gem5-x86 --options= --mem-size=8GB --maxinst=250000000 --caches --l2cache --l1d_size=32kB --l1i_size=32kB --l1d_assoc=8 --l1i_assoc=8 --l2_size=256kB --l2_assoc=8 --checkpoint-restore=1 --checkpoint-dir=/workspace/checkpoints/cam4/m5out --restore-with-cpu=AtomicSimpleCPU --standard-switch=1 --warmup-insts=50000000 --dsb-enable-bypass=false --dsb-enable-aging=true --dsb-bypass-counter=6 --dsb-virtual-bypass-counter=4 --dsb-random-promotion=0 --dsb-minimum-bypass-counter=8

info: Standard input is not a terminal, disabling listeners.
Replacement policy: DSBRP
L1I size: 32kB, assoc: 8
L1D size: 32kB, assoc: 8
L2 size: 256kB, assoc: 8
L3 size: 2MB, L3 assoc: 16
Switch at instruction count:1
src/sim/simulate.cc:194: info: Entering event queue @ 25337984014000.  Starting simulation...
src/sim/power_state.cc:105: warn: PowerState: Already in the requested power state, request ignored
Switched CPUS @ tick 25337984015500
switching cpus
Switch at instruction count:50000000
src/sim/simulate.cc:194: info: Entering event queue @ 25337984015500.  Starting simulation...
[DSB @ 100000 calls] bc=8 isBypassOn=false| real=0 virt=6236 notrack=93763 | touchRes=5392(eff=0,ineff=5392) resetRes=9(ineff=0,eff=9) | bc++=5392 bc--=9 inv=7
[DSB @ 200000 calls] bc=8 isBypassOn=false| real=0 virt=12537 notrack=187462 | touchRes=10904(eff=0,ineff=10904) resetRes=9(ineff=0,eff=9) | bc++=10904 bc--=9 inv=9
[DSB @ 300000 calls] bc=8 isBypassOn=false| real=0 virt=18724 notrack=281275 | touchRes=16336(eff=0,ineff=16336) resetRes=9(ineff=0,eff=9) | bc++=16336 bc--=9 inv=9
[DSB @ 400000 calls] bc=8 isBypassOn=false| real=0 virt=24930 notrack=375069 | touchRes=21799(eff=0,ineff=21799) resetRes=9(ineff=0,eff=9) | bc++=21799 bc--=9 inv=10
[DSB @ 500000 calls] bc=8 isBypassOn=false| real=0 virt=31246 notrack=468753 | touchRes=27395(eff=0,ineff=27395) resetRes=9(ineff=0,eff=9) | bc++=27395 bc--=9 inv=11
src/sim/simulate.cc:194: info: Entering event queue @ 25488486284000.  Starting simulation...
Switching CPUS @ tick 25488486284000
Simulation ends instruction count:250000000
switching cpus
**** REAL SIMULATION ****
src/sim/simulate.cc:194: info: Entering event queue @ 25488486442750.  Starting simulation...
[DSB @ 600000 calls] bc=8 isBypassOn=false| real=0 virt=37663 notrack=562336 | touchRes=33248(eff=0,ineff=33248) resetRes=58(ineff=0,eff=58) | bc++=33248 bc--=58 inv=33
[DSB @ 700000 calls] bc=8 isBypassOn=false| real=0 virt=43743 notrack=656256 | touchRes=38555(eff=0,ineff=38555) resetRes=58(ineff=0,eff=58) | bc++=38555 bc--=58 inv=45
[DSB @ 800000 calls] bc=8 isBypassOn=false| real=0 virt=49882 notrack=750117 | touchRes=43972(eff=0,ineff=43972) resetRes=58(ineff=0,eff=58) | bc++=43972 bc--=58 inv=45
[DSB @ 900000 calls] bc=8 isBypassOn=false| real=0 virt=56180 notrack=843819 | touchRes=49527(eff=0,ineff=49527) resetRes=58(ineff=0,eff=58) | bc++=49527 bc--=58 inv=45
[DSB @ 1000000 calls] bc=8 isBypassOn=false| real=0 virt=62316 notrack=937683 | touchRes=54980(eff=0,ineff=54980) resetRes=58(ineff=0,eff=58) | bc++=54980 bc--=58 inv=45
[DSB @ 1100000 calls] bc=8 isBypassOn=false| real=0 virt=68572 notrack=1031427 | touchRes=60593(eff=0,ineff=60593) resetRes=91(ineff=0,eff=91) | bc++=60593 bc--=91 inv=68
[DSB @ 1200000 calls] bc=8 isBypassOn=false| real=0 virt=74855 notrack=1125144 | touchRes=66175(eff=0,ineff=66175) resetRes=95(ineff=0,eff=95) | bc++=66175 bc--=95 inv=84
[DSB @ 1300000 calls] bc=8 isBypassOn=false| real=0 virt=81207 notrack=1218792 | touchRes=71732(eff=0,ineff=71732) resetRes=95(ineff=0,eff=95) | bc++=71732 bc--=95 inv=84
[DSB @ 1400000 calls] bc=8 isBypassOn=false| real=0 virt=87461 notrack=1312538 | touchRes=77222(eff=0,ineff=77222) resetRes=95(ineff=0,eff=95) | bc++=77222 bc--=95 inv=84
[DSB @ 1500000 calls] bc=8 isBypassOn=false| real=0 virt=93725 notrack=1406274 | touchRes=82766(eff=0,ineff=82766) resetRes=95(ineff=0,eff=95) | bc++=82766 bc--=95 inv=86
Exiting @ tick 25666152331000 because a thread reached the max instruction count
