warn: The `get_runtime_isa` function is deprecated. Please migrate away from using this function.
warn: The se.py script is deprecated. It will be removed in future releases of  gem5.
warn: The `get_runtime_isa` function is deprecated. Please migrate away from using this function.
Global frequency set at 1000000000000 ticks per second
src/base/statistics.hh:279: warn: One of the stats is a legacy stat. Legacy stat is a stat that does not belong to any statistics::Group. Legacy stat is deprecated.
src/base/remote_gdb.cc:418: warn: Sockets disabled, not accepting gdb connections
src/sim/process.cc:396: warn: Checkpoints for pipes, device drivers and sockets do not work.
gem5 Simulator System.  https://www.gem5.org
gem5 is copyrighted software; use the --copyright option for details.

gem5 version 23.0.0.1
gem5 compiled Apr  6 2026 01:50:35
gem5 started Apr  6 2026 05:43:39
gem5 executing on b49ce2a326be, pid 136081
command line: /opt/gem5/build/X86/gem5.opt --outdir=/workspace/results_l3/1MB/policy1Config1/omnetpp /workspace/configs/run_spec_l3.py --rp-type=DSBRP --l3-size=1MB --l3-assoc=16 --cpu-type=DerivO3CPU --cmd=./omnetpp_s_base.gem5-x86 '--options=-c General -r 0' --mem-size=8GB --maxinst=250000000 --caches --l2cache --l1d_size=32kB --l1i_size=32kB --l1d_assoc=8 --l1i_assoc=8 --l2_size=256kB --l2_assoc=8 --checkpoint-restore=1 --checkpoint-dir=/workspace/checkpoints/omnetpp/m5out --restore-with-cpu=AtomicSimpleCPU --standard-switch=1 --warmup-insts=50000000 --dsb-enable-bypass=false --dsb-enable-aging=true --dsb-bypass-counter=6 --dsb-virtual-bypass-counter=4 --dsb-random-promotion=0 --dsb-minimum-bypass-counter=8

info: Standard input is not a terminal, disabling listeners.
Replacement policy: DSBRP
L1I size: 32kB, assoc: 8
L1D size: 32kB, assoc: 8
L2 size: 256kB, assoc: 8
L3 size: 1MB, L3 assoc: 16
Switch at instruction count:1
src/sim/simulate.cc:194: info: Entering event queue @ 27633443439000.  Starting simulation...
src/sim/power_state.cc:105: warn: PowerState: Already in the requested power state, request ignored
Switched CPUS @ tick 27633443440000
switching cpus
Switch at instruction count:50000000
src/sim/simulate.cc:194: info: Entering event queue @ 27633443440000.  Starting simulation...
[DSB @ 100000 calls] bc=8 isBypassOn=false| real=0 virt=6236 notrack=93763 | touchRes=4845(eff=0,ineff=4845) resetRes=250(ineff=0,eff=250) | bc++=4845 bc--=250 inv=46
[DSB @ 200000 calls] bc=8 isBypassOn=false| real=0 virt=12537 notrack=187462 | touchRes=9833(eff=0,ineff=9833) resetRes=500(ineff=0,eff=500) | bc++=9833 bc--=500 inv=135
[DSB @ 300000 calls] bc=8 isBypassOn=false| real=0 virt=18724 notrack=281275 | touchRes=14744(eff=0,ineff=14744) resetRes=743(ineff=0,eff=743) | bc++=14744 bc--=743 inv=212
[DSB @ 400000 calls] bc=8 isBypassOn=false| real=0 virt=24930 notrack=375069 | touchRes=19748(eff=0,ineff=19748) resetRes=944(ineff=0,eff=944) | bc++=19748 bc--=944 inv=292
src/sim/simulate.cc:194: info: Entering event queue @ 27787092188500.  Starting simulation...
Switching CPUS @ tick 27787092188500
Simulation ends instruction count:250000000
switching cpus
**** REAL SIMULATION ****
src/sim/simulate.cc:194: info: Entering event queue @ 27787092613500.  Starting simulation...
[DSB @ 500000 calls] bc=8 isBypassOn=false| real=0 virt=31235 notrack=468764 | touchRes=24771(eff=0,ineff=24771) resetRes=1157(ineff=0,eff=1157) | bc++=24771 bc--=1157 inv=397
[DSB @ 600000 calls] bc=8 isBypassOn=false| real=0 virt=37422 notrack=562577 | touchRes=29616(eff=0,ineff=29616) resetRes=1452(ineff=0,eff=1452) | bc++=29616 bc--=1452 inv=504
[DSB @ 700000 calls] bc=8 isBypassOn=false| real=0 virt=43595 notrack=656404 | touchRes=34458(eff=0,ineff=34458) resetRes=1773(ineff=0,eff=1773) | bc++=34458 bc--=1773 inv=646
[DSB @ 800000 calls] bc=8 isBypassOn=false| real=0 virt=49952 notrack=750047 | touchRes=39340(eff=0,ineff=39340) resetRes=2143(ineff=0,eff=2143) | bc++=39340 bc--=2143 inv=776
[DSB @ 900000 calls] bc=8 isBypassOn=false| real=0 virt=56180 notrack=843819 | touchRes=44150(eff=0,ineff=44150) resetRes=2481(ineff=0,eff=2481) | bc++=44150 bc--=2481 inv=887
[DSB @ 1000000 calls] bc=8 isBypassOn=false| real=0 virt=62589 notrack=937410 | touchRes=49194(eff=0,ineff=49194) resetRes=2791(ineff=0,eff=2791) | bc++=49194 bc--=2791 inv=1000
[DSB @ 1100000 calls] bc=8 isBypassOn=false| real=0 virt=68777 notrack=1031222 | touchRes=54033(eff=0,ineff=54033) resetRes=3071(ineff=0,eff=3071) | bc++=54033 bc--=3071 inv=1099
[DSB @ 1200000 calls] bc=8 isBypassOn=false| real=0 virt=74933 notrack=1125066 | touchRes=58862(eff=0,ineff=58862) resetRes=3356(ineff=0,eff=3356) | bc++=58862 bc--=3356 inv=1192
[DSB @ 1300000 calls] bc=8 isBypassOn=false| real=0 virt=81187 notrack=1218812 | touchRes=63754(eff=0,ineff=63754) resetRes=3652(ineff=0,eff=3652) | bc++=63754 bc--=3652 inv=1302
[DSB @ 1400000 calls] bc=8 isBypassOn=false| real=0 virt=87438 notrack=1312561 | touchRes=68665(eff=0,ineff=68665) resetRes=3957(ineff=0,eff=3957) | bc++=68665 bc--=3957 inv=1404
[DSB @ 1500000 calls] bc=8 isBypassOn=true| real=0 virt=93521 notrack=1406478 | touchRes=73478(eff=0,ineff=73478) resetRes=4197(ineff=0,eff=4197) | bc++=73478 bc--=4197 inv=1491
[DSB @ 1600000 calls] bc=8 isBypassOn=false| real=0 virt=99852 notrack=1500147 | touchRes=78354(eff=0,ineff=78354) resetRes=4525(ineff=0,eff=4525) | bc++=78354 bc--=4525 inv=1608
[DSB @ 1700000 calls] bc=8 isBypassOn=false| real=0 virt=106068 notrack=1593931 | touchRes=83171(eff=0,ineff=83171) resetRes=4777(ineff=0,eff=4777) | bc++=83171 bc--=4777 inv=1733
[DSB @ 1800000 calls] bc=8 isBypassOn=false| real=0 virt=112140 notrack=1687859 | touchRes=88013(eff=0,ineff=88013) resetRes=5018(ineff=0,eff=5018) | bc++=88013 bc--=5018 inv=1835
[DSB @ 1900000 calls] bc=8 isBypassOn=false| real=0 virt=118377 notrack=1781622 | touchRes=92809(eff=0,ineff=92809) resetRes=5293(ineff=0,eff=5293) | bc++=92809 bc--=5293 inv=1937
[DSB @ 2000000 calls] bc=8 isBypassOn=false| real=0 virt=124646 notrack=1875353 | touchRes=97749(eff=0,ineff=97749) resetRes=5541(ineff=0,eff=5541) | bc++=97749 bc--=5541 inv=2062
[DSB @ 2100000 calls] bc=8 isBypassOn=false| real=0 virt=130920 notrack=1969079 | touchRes=102637(eff=0,ineff=102637) resetRes=5809(ineff=0,eff=5809) | bc++=102637 bc--=5809 inv=2188
[DSB @ 2200000 calls] bc=8 isBypassOn=false| real=0 virt=137140 notrack=2062859 | touchRes=107574(eff=0,ineff=107574) resetRes=6065(ineff=0,eff=6065) | bc++=107574 bc--=6065 inv=2305
[DSB @ 2300000 calls] bc=8 isBypassOn=false| real=0 virt=143281 notrack=2156718 | touchRes=112402(eff=0,ineff=112402) resetRes=6333(ineff=0,eff=6333) | bc++=112402 bc--=6333 inv=2394
[DSB @ 2400000 calls] bc=8 isBypassOn=true| real=0 virt=149590 notrack=2250409 | touchRes=117383(eff=0,ineff=117383) resetRes=6594(ineff=0,eff=6594) | bc++=117383 bc--=6594 inv=2506
[DSB @ 2500000 calls] bc=8 isBypassOn=false| real=0 virt=155900 notrack=2344099 | touchRes=122331(eff=0,ineff=122331) resetRes=6842(ineff=0,eff=6842) | bc++=122331 bc--=6842 inv=2635
[DSB @ 2600000 calls] bc=8 isBypassOn=false| real=0 virt=162082 notrack=2437917 | touchRes=127191(eff=0,ineff=127191) resetRes=7122(ineff=0,eff=7122) | bc++=127191 bc--=7122 inv=2732
[DSB @ 2700000 calls] bc=8 isBypassOn=true| real=0 virt=168341 notrack=2531658 | touchRes=132087(eff=0,ineff=132087) resetRes=7396(ineff=0,eff=7396) | bc++=132087 bc--=7396 inv=2869
[DSB @ 2800000 calls] bc=8 isBypassOn=false| real=0 virt=174547 notrack=2625452 | touchRes=137003(eff=0,ineff=137003) resetRes=7679(ineff=0,eff=7679) | bc++=137003 bc--=7679 inv=2979
[DSB @ 2900000 calls] bc=8 isBypassOn=false| real=0 virt=180812 notrack=2719187 | touchRes=141943(eff=0,ineff=141943) resetRes=7977(ineff=0,eff=7977) | bc++=141943 bc--=7977 inv=3082
[DSB @ 3000000 calls] bc=8 isBypassOn=false| real=0 virt=187159 notrack=2812840 | touchRes=146948(eff=0,ineff=146948) resetRes=8274(ineff=0,eff=8274) | bc++=146948 bc--=8274 inv=3197
[DSB @ 3100000 calls] bc=8 isBypassOn=true| real=0 virt=193469 notrack=2906530 | touchRes=151949(eff=0,ineff=151949) resetRes=8563(ineff=0,eff=8563) | bc++=151949 bc--=8563 inv=3320
Exiting @ tick 28042949644000 because a thread reached the max instruction count
