warn: The `get_runtime_isa` function is deprecated. Please migrate away from using this function.
warn: The se.py script is deprecated. It will be removed in future releases of  gem5.
warn: The `get_runtime_isa` function is deprecated. Please migrate away from using this function.
Global frequency set at 1000000000000 ticks per second
src/base/statistics.hh:279: warn: One of the stats is a legacy stat. Legacy stat is a stat that does not belong to any statistics::Group. Legacy stat is deprecated.
src/base/remote_gdb.cc:418: warn: Sockets disabled, not accepting gdb connections
src/sim/process.cc:396: warn: Checkpoints for pipes, device drivers and sockets do not work.
gem5 Simulator System.  https://www.gem5.org
gem5 is copyrighted software; use the --copyright option for details.

gem5 version 23.0.0.1
gem5 compiled Apr  6 2026 01:50:35
gem5 started Apr  6 2026 15:09:46
gem5 executing on b49ce2a326be, pid 235498
command line: /opt/gem5/build/X86/gem5.opt --outdir=/workspace/results_l3/2MB/policy1Config2/lbm /workspace/configs/run_spec_l3.py --rp-type=DSBRP --l3-size=2MB --l3-assoc=16 --cpu-type=DerivO3CPU --cmd=./lbm_s_base.gem5-x86 '--options=2000 reference.dat 0 0 200_200_260_ldc.of' --mem-size=8GB --maxinst=250000000 --caches --l2cache --l1d_size=32kB --l1i_size=32kB --l1d_assoc=8 --l1i_assoc=8 --l2_size=256kB --l2_assoc=8 --checkpoint-restore=1 --checkpoint-dir=/workspace/checkpoints/lbm/m5out --restore-with-cpu=AtomicSimpleCPU --standard-switch=1 --warmup-insts=50000000 --dsb-enable-bypass=true --dsb-enable-aging=true --dsb-bypass-counter=6 --dsb-virtual-bypass-counter=3 --dsb-random-promotion=0 --dsb-minimum-bypass-counter=12

info: Standard input is not a terminal, disabling listeners.
Replacement policy: DSBRP
L1I size: 32kB, assoc: 8
L1D size: 32kB, assoc: 8
L2 size: 256kB, assoc: 8
L3 size: 2MB, L3 assoc: 16
Switch at instruction count:1
src/sim/simulate.cc:194: info: Entering event queue @ 25728322212500.  Starting simulation...
src/sim/simulate.cc:194: info: Entering event queue @ 25728322214000.  Starting simulation...
src/sim/power_state.cc:105: warn: PowerState: Already in the requested power state, request ignored
Switched CPUS @ tick 25728322214000
switching cpus
Switch at instruction count:50000000
src/sim/simulate.cc:194: info: Entering event queue @ 25728322215000.  Starting simulation...
[DSB @ 100000 calls] bc=12 isBypassOn=false| real=59 virt=12430 notrack=87510 | touchRes=10128(eff=20,ineff=10108) resetRes=24(ineff=24,eff=0) | bc++=10132 bc--=20 inv=0
[DSB @ 200000 calls] bc=12 isBypassOn=false| real=59 virt=24900 notrack=175040 | touchRes=20638(eff=20,ineff=20618) resetRes=24(ineff=24,eff=0) | bc++=20642 bc--=20 inv=0
[DSB @ 300000 calls] bc=12 isBypassOn=false| real=59 virt=37380 notrack=262560 | touchRes=31143(eff=20,ineff=31123) resetRes=24(ineff=24,eff=0) | bc++=31147 bc--=20 inv=0
[DSB @ 400000 calls] bc=12 isBypassOn=false| real=59 virt=49826 notrack=350114 | touchRes=41707(eff=20,ineff=41687) resetRes=24(ineff=24,eff=0) | bc++=41711 bc--=20 inv=1
[DSB @ 500000 calls] bc=12 isBypassOn=false| real=59 virt=62317 notrack=437623 | touchRes=52230(eff=20,ineff=52210) resetRes=24(ineff=24,eff=0) | bc++=52234 bc--=20 inv=1
[DSB @ 600000 calls] bc=12 isBypassOn=false| real=59 virt=74838 notrack=525102 | touchRes=62889(eff=20,ineff=62869) resetRes=24(ineff=24,eff=0) | bc++=62893 bc--=20 inv=1
[DSB @ 700000 calls] bc=12 isBypassOn=false| real=59 virt=87482 notrack=612458 | touchRes=73470(eff=20,ineff=73450) resetRes=24(ineff=24,eff=0) | bc++=73474 bc--=20 inv=1
[DSB @ 800000 calls] bc=12 isBypassOn=false| real=59 virt=100147 notrack=699793 | touchRes=84087(eff=20,ineff=84067) resetRes=24(ineff=24,eff=0) | bc++=84091 bc--=20 inv=1
[DSB @ 900000 calls] bc=12 isBypassOn=false| real=59 virt=112633 notrack=787307 | touchRes=94592(eff=20,ineff=94572) resetRes=24(ineff=24,eff=0) | bc++=94596 bc--=20 inv=1
[DSB @ 1000000 calls] bc=12 isBypassOn=false| real=59 virt=125061 notrack=874879 | touchRes=105032(eff=20,ineff=105012) resetRes=24(ineff=24,eff=0) | bc++=105036 bc--=20 inv=1
src/sim/simulate.cc:194: info: Entering event queue @ 25953212132500.  Starting simulation...
Switching CPUS @ tick 25953212132500
Simulation ends instruction count:250000000
switching cpus
**** REAL SIMULATION ****
src/sim/simulate.cc:194: info: Entering event queue @ 25953212320000.  Starting simulation...
[DSB @ 1100000 calls] bc=12 isBypassOn=false| real=59 virt=137721 notrack=962219 | touchRes=115792(eff=20,ineff=115772) resetRes=24(ineff=24,eff=0) | bc++=115796 bc--=20 inv=1
[DSB @ 1200000 calls] bc=12 isBypassOn=false| real=59 virt=150085 notrack=1049855 | touchRes=126245(eff=20,ineff=126225) resetRes=24(ineff=24,eff=0) | bc++=126249 bc--=20 inv=1
[DSB @ 1300000 calls] bc=12 isBypassOn=false| real=59 virt=162789 notrack=1137151 | touchRes=136925(eff=20,ineff=136905) resetRes=24(ineff=24,eff=0) | bc++=136929 bc--=20 inv=1
[DSB @ 1400000 calls] bc=12 isBypassOn=false| real=59 virt=175221 notrack=1224719 | touchRes=147472(eff=20,ineff=147452) resetRes=24(ineff=24,eff=0) | bc++=147476 bc--=20 inv=1
[DSB @ 1500000 calls] bc=12 isBypassOn=false| real=59 virt=187690 notrack=1312250 | touchRes=158004(eff=20,ineff=157984) resetRes=24(ineff=24,eff=0) | bc++=158008 bc--=20 inv=1
[DSB @ 1600000 calls] bc=12 isBypassOn=false| real=59 virt=200213 notrack=1399727 | touchRes=168509(eff=20,ineff=168489) resetRes=24(ineff=24,eff=0) | bc++=168513 bc--=20 inv=1
[DSB @ 1700000 calls] bc=12 isBypassOn=false| real=59 virt=212813 notrack=1487127 | touchRes=179096(eff=20,ineff=179076) resetRes=24(ineff=24,eff=0) | bc++=179100 bc--=20 inv=1
[DSB @ 1800000 calls] bc=12 isBypassOn=false| real=59 virt=225270 notrack=1574670 | touchRes=189574(eff=20,ineff=189554) resetRes=24(ineff=24,eff=0) | bc++=189578 bc--=20 inv=1
[DSB @ 1900000 calls] bc=12 isBypassOn=false| real=59 virt=237744 notrack=1662196 | touchRes=200085(eff=20,ineff=200065) resetRes=24(ineff=24,eff=0) | bc++=200089 bc--=20 inv=1
[DSB @ 2000000 calls] bc=12 isBypassOn=false| real=59 virt=250254 notrack=1749686 | touchRes=210601(eff=20,ineff=210581) resetRes=24(ineff=24,eff=0) | bc++=210605 bc--=20 inv=1
[DSB @ 2100000 calls] bc=12 isBypassOn=false| real=59 virt=262491 notrack=1837449 | touchRes=220870(eff=20,ineff=220850) resetRes=24(ineff=24,eff=0) | bc++=220874 bc--=20 inv=1
[DSB @ 2200000 calls] bc=12 isBypassOn=false| real=59 virt=275087 notrack=1924853 | touchRes=231398(eff=20,ineff=231378) resetRes=24(ineff=24,eff=0) | bc++=231402 bc--=20 inv=1
[DSB @ 2300000 calls] bc=12 isBypassOn=false| real=59 virt=287588 notrack=2012352 | touchRes=241919(eff=20,ineff=241899) resetRes=24(ineff=24,eff=0) | bc++=241923 bc--=20 inv=1
[DSB @ 2400000 calls] bc=12 isBypassOn=false| real=59 virt=300165 notrack=2099775 | touchRes=252416(eff=20,ineff=252396) resetRes=24(ineff=24,eff=0) | bc++=252420 bc--=20 inv=1
[DSB @ 2500000 calls] bc=12 isBypassOn=false| real=59 virt=312660 notrack=2187280 | touchRes=263012(eff=20,ineff=262992) resetRes=24(ineff=24,eff=0) | bc++=263016 bc--=20 inv=1
[DSB @ 2600000 calls] bc=12 isBypassOn=false| real=59 virt=325362 notrack=2274578 | touchRes=273736(eff=20,ineff=273716) resetRes=24(ineff=24,eff=0) | bc++=273740 bc--=20 inv=1
[DSB @ 2700000 calls] bc=12 isBypassOn=false| real=59 virt=337795 notrack=2362145 | touchRes=284243(eff=20,ineff=284223) resetRes=24(ineff=24,eff=0) | bc++=284247 bc--=20 inv=1
[DSB @ 2800000 calls] bc=12 isBypassOn=false| real=59 virt=350377 notrack=2449563 | touchRes=294876(eff=20,ineff=294856) resetRes=24(ineff=24,eff=0) | bc++=294880 bc--=20 inv=1
[DSB @ 2900000 calls] bc=12 isBypassOn=false| real=59 virt=362932 notrack=2537008 | touchRes=305437(eff=20,ineff=305417) resetRes=24(ineff=24,eff=0) | bc++=305441 bc--=20 inv=1
[DSB @ 3000000 calls] bc=12 isBypassOn=false| real=59 virt=375309 notrack=2624631 | touchRes=315896(eff=20,ineff=315876) resetRes=24(ineff=24,eff=0) | bc++=315900 bc--=20 inv=1
[DSB @ 3100000 calls] bc=12 isBypassOn=false| real=59 virt=387668 notrack=2712272 | touchRes=326320(eff=20,ineff=326300) resetRes=24(ineff=24,eff=0) | bc++=326324 bc--=20 inv=1
[DSB @ 3200000 calls] bc=12 isBypassOn=false| real=59 virt=400106 notrack=2799834 | touchRes=336786(eff=20,ineff=336766) resetRes=24(ineff=24,eff=0) | bc++=336790 bc--=20 inv=1
[DSB @ 3300000 calls] bc=12 isBypassOn=false| real=59 virt=412653 notrack=2887287 | touchRes=347267(eff=20,ineff=347247) resetRes=24(ineff=24,eff=0) | bc++=347271 bc--=20 inv=1
[DSB @ 3400000 calls] bc=12 isBypassOn=false| real=59 virt=425207 notrack=2974733 | touchRes=357804(eff=20,ineff=357784) resetRes=24(ineff=24,eff=0) | bc++=357808 bc--=20 inv=1
[DSB @ 3500000 calls] bc=12 isBypassOn=false| real=59 virt=437788 notrack=3062152 | touchRes=368456(eff=20,ineff=368436) resetRes=24(ineff=24,eff=0) | bc++=368460 bc--=20 inv=1
[DSB @ 3600000 calls] bc=12 isBypassOn=false| real=59 virt=450355 notrack=3149585 | touchRes=379067(eff=20,ineff=379047) resetRes=24(ineff=24,eff=0) | bc++=379071 bc--=20 inv=1
[DSB @ 3700000 calls] bc=12 isBypassOn=false| real=59 virt=462890 notrack=3237050 | touchRes=389549(eff=20,ineff=389529) resetRes=24(ineff=24,eff=0) | bc++=389553 bc--=20 inv=1
[DSB @ 3800000 calls] bc=12 isBypassOn=false| real=59 virt=475241 notrack=3324699 | touchRes=399924(eff=20,ineff=399904) resetRes=24(ineff=24,eff=0) | bc++=399928 bc--=20 inv=1
[DSB @ 3900000 calls] bc=12 isBypassOn=false| real=59 virt=487725 notrack=3412215 | touchRes=410468(eff=20,ineff=410448) resetRes=24(ineff=24,eff=0) | bc++=410472 bc--=20 inv=1
[DSB @ 4000000 calls] bc=12 isBypassOn=false| real=59 virt=500240 notrack=3499700 | touchRes=421044(eff=20,ineff=421024) resetRes=24(ineff=24,eff=0) | bc++=421048 bc--=20 inv=2
[DSB @ 4100000 calls] bc=12 isBypassOn=false| real=59 virt=512947 notrack=3586993 | touchRes=431728(eff=20,ineff=431708) resetRes=24(ineff=24,eff=0) | bc++=431732 bc--=20 inv=2
[DSB @ 4200000 calls] bc=12 isBypassOn=false| real=59 virt=525381 notrack=3674559 | touchRes=442230(eff=20,ineff=442210) resetRes=24(ineff=24,eff=0) | bc++=442234 bc--=20 inv=2
[DSB @ 4300000 calls] bc=12 isBypassOn=false| real=59 virt=537859 notrack=3762081 | touchRes=452738(eff=20,ineff=452718) resetRes=24(ineff=24,eff=0) | bc++=452742 bc--=20 inv=2
[DSB @ 4400000 calls] bc=12 isBypassOn=false| real=59 virt=550350 notrack=3849590 | touchRes=463271(eff=20,ineff=463251) resetRes=24(ineff=24,eff=0) | bc++=463275 bc--=20 inv=2
[DSB @ 4500000 calls] bc=12 isBypassOn=false| real=59 virt=562906 notrack=3937034 | touchRes=473890(eff=20,ineff=473870) resetRes=24(ineff=24,eff=0) | bc++=473894 bc--=20 inv=2
[DSB @ 4600000 calls] bc=12 isBypassOn=false| real=59 virt=575449 notrack=4024491 | touchRes=484374(eff=20,ineff=484354) resetRes=24(ineff=24,eff=0) | bc++=484378 bc--=20 inv=2
[DSB @ 4700000 calls] bc=12 isBypassOn=false| real=59 virt=587800 notrack=4112140 | touchRes=494879(eff=20,ineff=494859) resetRes=24(ineff=24,eff=0) | bc++=494883 bc--=20 inv=2
[DSB @ 4800000 calls] bc=12 isBypassOn=false| real=59 virt=600195 notrack=4199745 | touchRes=505240(eff=20,ineff=505220) resetRes=24(ineff=24,eff=0) | bc++=505244 bc--=20 inv=2
[DSB @ 4900000 calls] bc=12 isBypassOn=false| real=59 virt=612546 notrack=4287394 | touchRes=515615(eff=20,ineff=515595) resetRes=24(ineff=24,eff=0) | bc++=515619 bc--=20 inv=2
[DSB @ 5000000 calls] bc=12 isBypassOn=false| real=59 virt=625140 notrack=4374800 | touchRes=526220(eff=20,ineff=526200) resetRes=24(ineff=24,eff=0) | bc++=526224 bc--=20 inv=2
[DSB @ 5100000 calls] bc=12 isBypassOn=false| real=59 virt=637609 notrack=4462331 | touchRes=536714(eff=20,ineff=536694) resetRes=24(ineff=24,eff=0) | bc++=536718 bc--=20 inv=2
[DSB @ 5200000 calls] bc=12 isBypassOn=false| real=59 virt=649981 notrack=4549959 | touchRes=547237(eff=20,ineff=547217) resetRes=24(ineff=24,eff=0) | bc++=547241 bc--=20 inv=3
[DSB @ 5300000 calls] bc=12 isBypassOn=false| real=59 virt=662404 notrack=4637536 | touchRes=557822(eff=20,ineff=557802) resetRes=24(ineff=24,eff=0) | bc++=557826 bc--=20 inv=3
[DSB @ 5400000 calls] bc=12 isBypassOn=false| real=59 virt=674904 notrack=4725036 | touchRes=568410(eff=20,ineff=568390) resetRes=24(ineff=24,eff=0) | bc++=568414 bc--=20 inv=3
[DSB @ 5500000 calls] bc=12 isBypassOn=false| real=59 virt=687522 notrack=4812418 | touchRes=579089(eff=20,ineff=579069) resetRes=24(ineff=24,eff=0) | bc++=579093 bc--=20 inv=3
[DSB @ 5600000 calls] bc=12 isBypassOn=false| real=59 virt=700098 notrack=4899842 | touchRes=589834(eff=20,ineff=589814) resetRes=24(ineff=24,eff=0) | bc++=589838 bc--=20 inv=3
[DSB @ 5700000 calls] bc=12 isBypassOn=false| real=59 virt=712723 notrack=4987217 | touchRes=600465(eff=20,ineff=600445) resetRes=24(ineff=24,eff=0) | bc++=600469 bc--=20 inv=3
[DSB @ 5800000 calls] bc=12 isBypassOn=false| real=59 virt=725327 notrack=5074613 | touchRes=611138(eff=20,ineff=611118) resetRes=24(ineff=24,eff=0) | bc++=611142 bc--=20 inv=3
[DSB @ 5900000 calls] bc=12 isBypassOn=false| real=59 virt=737900 notrack=5162040 | touchRes=621724(eff=20,ineff=621704) resetRes=24(ineff=24,eff=0) | bc++=621728 bc--=20 inv=3
[DSB @ 6000000 calls] bc=12 isBypassOn=false| real=59 virt=750427 notrack=5249513 | touchRes=632351(eff=20,ineff=632331) resetRes=24(ineff=24,eff=0) | bc++=632355 bc--=20 inv=3
[DSB @ 6100000 calls] bc=12 isBypassOn=false| real=59 virt=763000 notrack=5336940 | touchRes=642976(eff=20,ineff=642956) resetRes=24(ineff=24,eff=0) | bc++=642980 bc--=20 inv=3
[DSB @ 6200000 calls] bc=12 isBypassOn=false| real=59 virt=775569 notrack=5424371 | touchRes=653703(eff=20,ineff=653683) resetRes=24(ineff=24,eff=0) | bc++=653707 bc--=20 inv=3
[DSB @ 6300000 calls] bc=12 isBypassOn=false| real=59 virt=787845 notrack=5512095 | touchRes=664152(eff=20,ineff=664132) resetRes=24(ineff=24,eff=0) | bc++=664156 bc--=20 inv=3
[DSB @ 6400000 calls] bc=12 isBypassOn=false| real=59 virt=800338 notrack=5599602 | touchRes=674724(eff=20,ineff=674704) resetRes=24(ineff=24,eff=0) | bc++=674728 bc--=20 inv=3
[DSB @ 6500000 calls] bc=12 isBypassOn=false| real=59 virt=812802 notrack=5687138 | touchRes=685326(eff=20,ineff=685306) resetRes=24(ineff=24,eff=0) | bc++=685330 bc--=20 inv=3
[DSB @ 6600000 calls] bc=12 isBypassOn=false| real=59 virt=825502 notrack=5774438 | touchRes=696116(eff=20,ineff=696096) resetRes=24(ineff=24,eff=0) | bc++=696120 bc--=20 inv=3
[DSB @ 6700000 calls] bc=12 isBypassOn=false| real=59 virt=837856 notrack=5862084 | touchRes=706601(eff=20,ineff=706581) resetRes=24(ineff=24,eff=0) | bc++=706605 bc--=20 inv=3
[DSB @ 6800000 calls] bc=12 isBypassOn=false| real=59 virt=850465 notrack=5949475 | touchRes=717307(eff=20,ineff=717287) resetRes=24(ineff=24,eff=0) | bc++=717311 bc--=20 inv=3
[DSB @ 6900000 calls] bc=12 isBypassOn=false| real=59 virt=862930 notrack=6037010 | touchRes=727957(eff=20,ineff=727937) resetRes=24(ineff=24,eff=0) | bc++=727961 bc--=20 inv=3
[DSB @ 7000000 calls] bc=12 isBypassOn=false| real=59 virt=875485 notrack=6124455 | touchRes=738596(eff=20,ineff=738576) resetRes=24(ineff=24,eff=0) | bc++=738600 bc--=20 inv=3
[DSB @ 7100000 calls] bc=12 isBypassOn=false| real=59 virt=888108 notrack=6211832 | touchRes=749359(eff=20,ineff=749339) resetRes=24(ineff=24,eff=0) | bc++=749363 bc--=20 inv=3
Exiting @ tick 26585404896500 because a thread reached the max instruction count
