warn: The `get_runtime_isa` function is deprecated. Please migrate away from using this function.
warn: The se.py script is deprecated. It will be removed in future releases of  gem5.
warn: The `get_runtime_isa` function is deprecated. Please migrate away from using this function.
Global frequency set at 1000000000000 ticks per second
src/base/statistics.hh:279: warn: One of the stats is a legacy stat. Legacy stat is a stat that does not belong to any statistics::Group. Legacy stat is deprecated.
src/base/remote_gdb.cc:418: warn: Sockets disabled, not accepting gdb connections
src/sim/process.cc:396: warn: Checkpoints for pipes, device drivers and sockets do not work.
gem5 Simulator System.  https://www.gem5.org
gem5 is copyrighted software; use the --copyright option for details.

gem5 version 23.0.0.1
gem5 compiled Apr  6 2026 01:50:35
gem5 started Apr  6 2026 06:47:38
gem5 executing on b49ce2a326be, pid 146479
command line: /opt/gem5/build/X86/gem5.opt --outdir=/workspace/results_l3/1MB/policy1Config1/pop2 /workspace/configs/run_spec_l3.py --rp-type=DSBRP --l3-size=1MB --l3-assoc=16 --cpu-type=DerivO3CPU --cmd=./speed_pop2_base.gem5-x86 --options= --mem-size=8GB --maxinst=250000000 --caches --l2cache --l1d_size=32kB --l1i_size=32kB --l1d_assoc=8 --l1i_assoc=8 --l2_size=256kB --l2_assoc=8 --checkpoint-restore=1 --checkpoint-dir=/workspace/checkpoints/pop2/m5out --restore-with-cpu=AtomicSimpleCPU --standard-switch=1 --warmup-insts=50000000 --dsb-enable-bypass=false --dsb-enable-aging=true --dsb-bypass-counter=6 --dsb-virtual-bypass-counter=4 --dsb-random-promotion=0 --dsb-minimum-bypass-counter=8

info: Standard input is not a terminal, disabling listeners.
Replacement policy: DSBRP
L1I size: 32kB, assoc: 8
L1D size: 32kB, assoc: 8
L2 size: 256kB, assoc: 8
L3 size: 1MB, L3 assoc: 16
Switch at instruction count:1
src/sim/simulate.cc:194: info: Entering event queue @ 28375057083500.  Starting simulation...
src/sim/simulate.cc:194: info: Entering event queue @ 28375057085000.  Starting simulation...
src/sim/power_state.cc:105: warn: PowerState: Already in the requested power state, request ignored
Switched CPUS @ tick 28375057085000
switching cpus
Switch at instruction count:50000000
src/sim/simulate.cc:194: info: Entering event queue @ 28375057086000.  Starting simulation...
[DSB @ 100000 calls] bc=8 isBypassOn=false| real=0 virt=6236 notrack=93763 | touchRes=5062(eff=0,ineff=5062) resetRes=227(ineff=0,eff=227) | bc++=5062 bc--=227 inv=103
src/sim/simulate.cc:194: info: Entering event queue @ 28515338593000.  Starting simulation...
Switching CPUS @ tick 28515338593000
Simulation ends instruction count:250000000
switching cpus
**** REAL SIMULATION ****
src/sim/simulate.cc:194: info: Entering event queue @ 28515338809250.  Starting simulation...
[DSB @ 200000 calls] bc=8 isBypassOn=false| real=0 virt=12471 notrack=187528 | touchRes=10114(eff=0,ineff=10114) resetRes=743(ineff=0,eff=743) | bc++=10114 bc--=743 inv=377
[DSB @ 300000 calls] bc=8 isBypassOn=false| real=0 virt=18736 notrack=281263 | touchRes=15158(eff=0,ineff=15158) resetRes=1278(ineff=0,eff=1278) | bc++=15158 bc--=1278 inv=659
[DSB @ 400000 calls] bc=8 isBypassOn=true| real=0 virt=24930 notrack=375069 | touchRes=19906(eff=0,ineff=19906) resetRes=1460(ineff=0,eff=1460) | bc++=19906 bc--=1460 inv=780
[DSB @ 500000 calls] bc=8 isBypassOn=false| real=0 virt=31131 notrack=468868 | touchRes=24716(eff=0,ineff=24716) resetRes=1707(ineff=0,eff=1707) | bc++=24716 bc--=1707 inv=887
[DSB @ 600000 calls] bc=8 isBypassOn=false| real=0 virt=37292 notrack=562707 | touchRes=29641(eff=0,ineff=29641) resetRes=1730(ineff=0,eff=1730) | bc++=29641 bc--=1730 inv=917
[DSB @ 700000 calls] bc=8 isBypassOn=false| real=0 virt=43633 notrack=656366 | touchRes=34451(eff=0,ineff=34451) resetRes=1984(ineff=0,eff=1984) | bc++=34451 bc--=1984 inv=944
[DSB @ 800000 calls] bc=8 isBypassOn=false| real=0 virt=49812 notrack=750187 | touchRes=39387(eff=0,ineff=39387) resetRes=2058(ineff=0,eff=2058) | bc++=39387 bc--=2058 inv=985
[DSB @ 900000 calls] bc=8 isBypassOn=false| real=0 virt=56025 notrack=843974 | touchRes=44534(eff=0,ineff=44534) resetRes=2541(ineff=0,eff=2541) | bc++=44534 bc--=2541 inv=1236
[DSB @ 1000000 calls] bc=8 isBypassOn=false| real=0 virt=62252 notrack=937747 | touchRes=49450(eff=0,ineff=49450) resetRes=3051(ineff=0,eff=3051) | bc++=49450 bc--=3051 inv=1524
[DSB @ 1100000 calls] bc=8 isBypassOn=false| real=0 virt=68508 notrack=1031491 | touchRes=54493(eff=0,ineff=54493) resetRes=3411(ineff=0,eff=3411) | bc++=54493 bc--=3411 inv=1728
[DSB @ 1200000 calls] bc=8 isBypassOn=false| real=0 virt=74676 notrack=1125323 | touchRes=59150(eff=0,ineff=59150) resetRes=3557(ineff=0,eff=3557) | bc++=59150 bc--=3557 inv=1861
[DSB @ 1300000 calls] bc=8 isBypassOn=false| real=0 virt=80814 notrack=1219185 | touchRes=64041(eff=0,ineff=64041) resetRes=3837(ineff=0,eff=3837) | bc++=64041 bc--=3837 inv=1913
Exiting @ tick 28688815852000 because a thread reached the max instruction count
