warn: The `get_runtime_isa` function is deprecated. Please migrate away from using this function.
warn: The se.py script is deprecated. It will be removed in future releases of  gem5.
warn: The `get_runtime_isa` function is deprecated. Please migrate away from using this function.
Global frequency set at 1000000000000 ticks per second
src/base/statistics.hh:279: warn: One of the stats is a legacy stat. Legacy stat is a stat that does not belong to any statistics::Group. Legacy stat is deprecated.
src/base/remote_gdb.cc:418: warn: Sockets disabled, not accepting gdb connections
src/sim/process.cc:396: warn: Checkpoints for pipes, device drivers and sockets do not work.
gem5 Simulator System.  https://www.gem5.org
gem5 is copyrighted software; use the --copyright option for details.

gem5 version 23.0.0.1
gem5 compiled Apr  6 2026 01:50:35
gem5 started Apr  6 2026 12:06:43
gem5 executing on b49ce2a326be, pid 202345
command line: /opt/gem5/build/X86/gem5.opt --outdir=/workspace/results_l3/2MB/policy0Config3/mcf /workspace/configs/run_spec_l3.py --rp-type=DSBRP --l3-size=2MB --l3-assoc=16 --cpu-type=DerivO3CPU --cmd=./mcf_s_base.gem5-x86 --options=inp.in --mem-size=8GB --maxinst=250000000 --caches --l2cache --l1d_size=32kB --l1i_size=32kB --l1d_assoc=8 --l1i_assoc=8 --l2_size=256kB --l2_assoc=8 --checkpoint-restore=1 --checkpoint-dir=/workspace/checkpoints/mcf/m5out --restore-with-cpu=AtomicSimpleCPU --standard-switch=1 --warmup-insts=50000000 --dsb-enable-bypass=true --dsb-enable-aging=false --dsb-bypass-counter=3 --dsb-virtual-bypass-counter=3 --dsb-random-promotion=0 --dsb-minimum-bypass-counter=12

info: Standard input is not a terminal, disabling listeners.
Replacement policy: DSBRP
L1I size: 32kB, assoc: 8
L1D size: 32kB, assoc: 8
L2 size: 256kB, assoc: 8
L3 size: 2MB, L3 assoc: 16
Switch at instruction count:1
src/sim/simulate.cc:194: info: Entering event queue @ 24065090964500.  Starting simulation...
src/sim/simulate.cc:194: info: Entering event queue @ 24065090965500.  Starting simulation...
src/sim/power_state.cc:105: warn: PowerState: Already in the requested power state, request ignored
Switched CPUS @ tick 24065090965500
switching cpus
Switch at instruction count:50000000
src/sim/simulate.cc:194: info: Entering event queue @ 24065090966000.  Starting simulation...
[DSB @ 100000 calls] bc=12 isBypassOn=false| real=275 virt=12409 notrack=87315 | touchRes=6822(eff=160,ineff=6662) resetRes=193(ineff=46,eff=147) | bc++=6708 bc--=307 inv=4289
[DSB @ 200000 calls] bc=12 isBypassOn=false| real=276 virt=24870 notrack=174853 | touchRes=11969(eff=160,ineff=11809) resetRes=455(ineff=46,eff=409) | bc++=11855 bc--=569 inv=10527
[DSB @ 300000 calls] bc=12 isBypassOn=false| real=276 virt=37341 notrack=262382 | touchRes=17031(eff=160,ineff=16871) resetRes=731(ineff=46,eff=685) | bc++=16917 bc--=845 inv=16758
[DSB @ 400000 calls] bc=12 isBypassOn=false| real=277 virt=49770 notrack=349952 | touchRes=22119(eff=160,ineff=21959) resetRes=909(ineff=46,eff=863) | bc++=22005 bc--=1023 inv=22982
src/sim/simulate.cc:194: info: Entering event queue @ 24222590031500.  Starting simulation...
Switching CPUS @ tick 24222590031500
Simulation ends instruction count:250000000
switching cpus
**** REAL SIMULATION ****
src/sim/simulate.cc:194: info: Entering event queue @ 24222590174000.  Starting simulation...
[DSB @ 500000 calls] bc=12 isBypassOn=false| real=277 virt=62268 notrack=437454 | touchRes=27391(eff=160,ineff=27231) resetRes=1057(ineff=46,eff=1011) | bc++=27277 bc--=1171 inv=29156
[DSB @ 600000 calls] bc=12 isBypassOn=false| real=278 virt=74529 notrack=525192 | touchRes=32681(eff=161,ineff=32520) resetRes=1185(ineff=46,eff=1139) | bc++=32566 bc--=1300 inv=35189
[DSB @ 700000 calls] bc=12 isBypassOn=false| real=278 virt=86997 notrack=612724 | touchRes=37768(eff=161,ineff=37607) resetRes=1357(ineff=46,eff=1311) | bc++=37653 bc--=1472 inv=41468
[DSB @ 800000 calls] bc=12 isBypassOn=false| real=279 virt=99437 notrack=700283 | touchRes=42792(eff=162,ineff=42630) resetRes=1611(ineff=46,eff=1565) | bc++=42676 bc--=1727 inv=47728
[DSB @ 900000 calls] bc=12 isBypassOn=false| real=280 virt=111870 notrack=787849 | touchRes=47817(eff=162,ineff=47655) resetRes=1894(ineff=46,eff=1848) | bc++=47701 bc--=2010 inv=53953
[DSB @ 1000000 calls] bc=12 isBypassOn=false| real=280 virt=124444 notrack=875275 | touchRes=52907(eff=162,ineff=52745) resetRes=2080(ineff=46,eff=2034) | bc++=52791 bc--=2196 inv=60349
[DSB @ 1100000 calls] bc=12 isBypassOn=false| real=282 virt=137046 notrack=962671 | touchRes=58103(eff=162,ineff=57941) resetRes=2231(ineff=46,eff=2185) | bc++=57987 bc--=2347 inv=66694
[DSB @ 1200000 calls] bc=12 isBypassOn=false| real=283 virt=149531 notrack=1050185 | touchRes=63394(eff=163,ineff=63231) resetRes=2366(ineff=46,eff=2320) | bc++=63277 bc--=2483 inv=72839
[DSB @ 1300000 calls] bc=12 isBypassOn=false| real=284 virt=162146 notrack=1137569 | touchRes=68487(eff=163,ineff=68324) resetRes=2529(ineff=46,eff=2483) | bc++=68370 bc--=2646 inv=79243
[DSB @ 1400000 calls] bc=12 isBypassOn=false| real=286 virt=174569 notrack=1225144 | touchRes=73581(eff=164,ineff=73417) resetRes=2775(ineff=47,eff=2728) | bc++=73464 bc--=2892 inv=85503
[DSB @ 1500000 calls] bc=12 isBypassOn=false| real=286 virt=186849 notrack=1312864 | touchRes=78528(eff=164,ineff=78364) resetRes=2997(ineff=47,eff=2950) | bc++=78411 bc--=3114 inv=91733
[DSB @ 1600000 calls] bc=12 isBypassOn=false| real=287 virt=199329 notrack=1400383 | touchRes=83701(eff=164,ineff=83537) resetRes=3176(ineff=47,eff=3129) | bc++=83584 bc--=3293 inv=97955
[DSB @ 1700000 calls] bc=12 isBypassOn=false| real=288 virt=211785 notrack=1487926 | touchRes=88898(eff=164,ineff=88734) resetRes=3324(ineff=47,eff=3277) | bc++=88781 bc--=3441 inv=104214
[DSB @ 1800000 calls] bc=12 isBypassOn=false| real=289 virt=224047 notrack=1575663 | touchRes=94108(eff=164,ineff=93944) resetRes=3443(ineff=47,eff=3396) | bc++=93991 bc--=3560 inv=110318
[DSB @ 1900000 calls] bc=12 isBypassOn=false| real=289 virt=236660 notrack=1663050 | touchRes=99093(eff=164,ineff=98929) resetRes=3611(ineff=47,eff=3564) | bc++=98976 bc--=3728 inv=116774
[DSB @ 2000000 calls] bc=12 isBypassOn=false| real=291 virt=249249 notrack=1750459 | touchRes=104338(eff=165,ineff=104173) resetRes=3907(ineff=47,eff=3860) | bc++=104220 bc--=4025 inv=122892
[DSB @ 2100000 calls] bc=12 isBypassOn=false| real=294 virt=261597 notrack=1838108 | touchRes=109374(eff=167,ineff=109207) resetRes=4174(ineff=47,eff=4127) | bc++=109254 bc--=4294 inv=129060
[DSB @ 2200000 calls] bc=12 isBypassOn=false| real=296 virt=274341 notrack=1925362 | touchRes=114574(eff=167,ineff=114407) resetRes=4345(ineff=47,eff=4298) | bc++=114454 bc--=4465 inv=135469
[DSB @ 2300000 calls] bc=12 isBypassOn=false| real=296 virt=286946 notrack=2012757 | touchRes=119857(eff=167,ineff=119690) resetRes=4487(ineff=47,eff=4440) | bc++=119737 bc--=4607 inv=141727
[DSB @ 2400000 calls] bc=12 isBypassOn=false| real=297 virt=299464 notrack=2100238 | touchRes=125161(eff=167,ineff=124994) resetRes=4624(ineff=47,eff=4577) | bc++=125041 bc--=4744 inv=147915
Exiting @ tick 24433388605000 because a thread reached the max instruction count
