warn: The `get_runtime_isa` function is deprecated. Please migrate away from using this function.
warn: The se.py script is deprecated. It will be removed in future releases of  gem5.
warn: The `get_runtime_isa` function is deprecated. Please migrate away from using this function.
Global frequency set at 1000000000000 ticks per second
src/base/statistics.hh:279: warn: One of the stats is a legacy stat. Legacy stat is a stat that does not belong to any statistics::Group. Legacy stat is deprecated.
src/base/remote_gdb.cc:418: warn: Sockets disabled, not accepting gdb connections
src/sim/process.cc:396: warn: Checkpoints for pipes, device drivers and sockets do not work.
gem5 Simulator System.  https://www.gem5.org
gem5 is copyrighted software; use the --copyright option for details.

gem5 version 23.0.0.1
gem5 compiled Apr  6 2026 01:50:35
gem5 started Apr  7 2026 10:37:01
gem5 executing on b49ce2a326be, pid 86588
command line: /opt/gem5/build/X86/gem5.opt --outdir=/workspace/results_l3/4MB/policy0Config2/pop2 /workspace/configs/run_spec_l3.py --rp-type=DSBRP --l3-size=4MB --l3-assoc=16 --cpu-type=DerivO3CPU --cmd=./speed_pop2_base.gem5-x86 --options= --mem-size=8GB --maxinst=250000000 --caches --l2cache --l1d_size=32kB --l1i_size=32kB --l1d_assoc=8 --l1i_assoc=8 --l2_size=256kB --l2_assoc=8 --checkpoint-restore=1 --checkpoint-dir=/workspace/checkpoints/pop2/m5out --restore-with-cpu=AtomicSimpleCPU --standard-switch=1 --warmup-insts=50000000 --dsb-enable-bypass=true --dsb-enable-aging=false --dsb-bypass-counter=6 --dsb-virtual-bypass-counter=3 --dsb-random-promotion=0 --dsb-minimum-bypass-counter=12

info: Standard input is not a terminal, disabling listeners.
Replacement policy: DSBRP
L1I size: 32kB, assoc: 8
L1D size: 32kB, assoc: 8
L2 size: 256kB, assoc: 8
L3 size: 4MB, L3 assoc: 16
Switch at instruction count:1
src/sim/simulate.cc:194: info: Entering event queue @ 28375057083500.  Starting simulation...
src/sim/simulate.cc:194: info: Entering event queue @ 28375057085000.  Starting simulation...
src/sim/power_state.cc:105: warn: PowerState: Already in the requested power state, request ignored
Switched CPUS @ tick 28375057085000
switching cpus
Switch at instruction count:50000000
src/sim/simulate.cc:194: info: Entering event queue @ 28375057086000.  Starting simulation...
[DSB @ 100000 calls] bc=12 isBypassOn=false| real=33 virt=12380 notrack=87586 | touchRes=10245(eff=30,ineff=10215) resetRes=346(ineff=0,eff=346) | bc++=10215 bc--=376 inv=985
src/sim/simulate.cc:194: info: Entering event queue @ 28514909705500.  Starting simulation...
Switching CPUS @ tick 28514909705500
Simulation ends instruction count:250000000
switching cpus
**** REAL SIMULATION ****
src/sim/simulate.cc:194: info: Entering event queue @ 28514909880000.  Starting simulation...
[DSB @ 200000 calls] bc=12 isBypassOn=false| real=95 virt=24773 notrack=175131 | touchRes=17785(eff=50,ineff=17735) resetRes=1336(ineff=22,eff=1314) | bc++=17757 bc--=1364 inv=4444
[DSB @ 300000 calls] bc=12 isBypassOn=false| real=272 virt=37353 notrack=262374 | touchRes=25650(eff=128,ineff=25522) resetRes=2334(ineff=80,eff=2254) | bc++=25602 bc--=2382 inv=7890
[DSB @ 400000 calls] bc=2 isBypassOn=true| real=24133 virt=46845 notrack=329021 | touchRes=35188(eff=6226,ineff=28962) resetRes=7157(ineff=3704,eff=3453) | bc++=32666 bc--=9679 inv=17482
[DSB @ 500000 calls] bc=0 isBypassOn=true| real=44562 virt=56845 notrack=398592 | touchRes=44677(eff=11296,ineff=33381) resetRes=11706(ineff=6798,eff=4908) | bc++=40179 bc--=16204 inv=27026
[DSB @ 600000 calls] bc=6 isBypassOn=true| real=70104 virt=66143 notrack=463752 | touchRes=51939(eff=16900,ineff=35039) resetRes=18443(ineff=11944,eff=6499) | bc++=46983 bc--=23399 inv=39886
[DSB @ 700000 calls] bc=0 isBypassOn=true| real=105937 virt=74247 notrack=519815 | touchRes=64362(eff=27315,ineff=37047) resetRes=23394(ineff=15546,eff=7848) | bc++=52593 bc--=35163 inv=52515
[DSB @ 800000 calls] bc=0 isBypassOn=true| real=161410 virt=79817 notrack=558772 | touchRes=70627(eff=30643,ineff=39984) resetRes=24277(ineff=16118,eff=8159) | bc++=56102 bc--=38802 inv=58146
[DSB @ 900000 calls] bc=12 isBypassOn=false| real=200645 virt=87373 notrack=611981 | touchRes=73957(eff=30718,ineff=43239) resetRes=25338(ineff=16482,eff=8856) | bc++=59721 bc--=39574 inv=64375
[DSB @ 1000000 calls] bc=12 isBypassOn=true| real=200741 virt=99618 notrack=699640 | touchRes=79838(eff=30740,ineff=49098) resetRes=26750(ineff=16505,eff=10245) | bc++=65603 bc--=40985 inv=68811
[DSB @ 1100000 calls] bc=12 isBypassOn=false| real=201032 virt=112021 notrack=786946 | touchRes=86143(eff=30814,ineff=55329) resetRes=28119(ineff=16563,eff=11556) | bc++=71892 bc--=42370 inv=73175
[DSB @ 1200000 calls] bc=12 isBypassOn=true| real=202612 virt=124283 notrack=873104 | touchRes=93089(eff=31427,ineff=61662) resetRes=29616(ineff=16810,eff=12806) | bc++=78472 bc--=44233 inv=77722
[DSB @ 1300000 calls] bc=0 isBypassOn=true| real=225680 virt=133798 notrack=940521 | touchRes=101080(eff=35437,ineff=65643) resetRes=31784(ineff=17748,eff=14036) | bc++=83391 bc--=49473 inv=85025
[DSB @ 1400000 calls] bc=11 isBypassOn=true| real=241636 virt=144295 notrack=1014068 | touchRes=109657(eff=39120,ineff=70537) resetRes=36167(ineff=20804,eff=15363) | bc++=91341 bc--=54483 inv=94322
[DSB @ 1500000 calls] bc=8 isBypassOn=true| real=268049 virt=153447 notrack=1078503 | touchRes=117278(eff=45132,ineff=72146) resetRes=42650(ineff=25744,eff=16906) | bc++=97890 bc--=62038 inv=106532
Exiting @ tick 28686570611000 because a thread reached the max instruction count
