warn: The `get_runtime_isa` function is deprecated. Please migrate away from using this function.
warn: The se.py script is deprecated. It will be removed in future releases of  gem5.
warn: The `get_runtime_isa` function is deprecated. Please migrate away from using this function.
Global frequency set at 1000000000000 ticks per second
src/base/statistics.hh:279: warn: One of the stats is a legacy stat. Legacy stat is a stat that does not belong to any statistics::Group. Legacy stat is deprecated.
src/base/remote_gdb.cc:418: warn: Sockets disabled, not accepting gdb connections
src/sim/process.cc:396: warn: Checkpoints for pipes, device drivers and sockets do not work.
gem5 Simulator System.  https://www.gem5.org
gem5 is copyrighted software; use the --copyright option for details.

gem5 version 23.0.0.1
gem5 compiled Apr  6 2026 01:50:35
gem5 started Apr  6 2026 03:09:07
gem5 executing on b49ce2a326be, pid 108648
command line: /opt/gem5/build/X86/gem5.opt --outdir=/workspace/results_l3/1MB/policy0Config2/xalancbmk /workspace/configs/run_spec_l3.py --rp-type=DSBRP --l3-size=1MB --l3-assoc=16 --cpu-type=DerivO3CPU --cmd=./xalancbmk_s_base.gem5-x86 '--options=-v t5.xml xalanc.xsl' --mem-size=8GB --maxinst=250000000 --caches --l2cache --l1d_size=32kB --l1i_size=32kB --l1d_assoc=8 --l1i_assoc=8 --l2_size=256kB --l2_assoc=8 --checkpoint-restore=1 --checkpoint-dir=/workspace/checkpoints/xalancbmk/m5out --restore-with-cpu=AtomicSimpleCPU --standard-switch=1 --warmup-insts=50000000 --dsb-enable-bypass=true --dsb-enable-aging=false --dsb-bypass-counter=6 --dsb-virtual-bypass-counter=3 --dsb-random-promotion=0 --dsb-minimum-bypass-counter=12

info: Standard input is not a terminal, disabling listeners.
Replacement policy: DSBRP
L1I size: 32kB, assoc: 8
L1D size: 32kB, assoc: 8
L2 size: 256kB, assoc: 8
L3 size: 1MB, L3 assoc: 16
Switch at instruction count:1
src/sim/simulate.cc:194: info: Entering event queue @ 27962974663500.  Starting simulation...
src/sim/simulate.cc:194: info: Entering event queue @ 27962974665000.  Starting simulation...
src/sim/power_state.cc:105: warn: PowerState: Already in the requested power state, request ignored
Switched CPUS @ tick 27962974665000
switching cpus
Switch at instruction count:50000000
src/sim/simulate.cc:194: info: Entering event queue @ 27962974666000.  Starting simulation...
[DSB @ 100000 calls] bc=11 isBypassOn=true| real=54 virt=12417 notrack=87528 | touchRes=1723(eff=24,ineff=1699) resetRes=64(ineff=0,eff=64) | bc++=1699 bc--=88 inv=8115
[DSB @ 200000 calls] bc=0 isBypassOn=true| real=74736 virt=15513 notrack=109750 | touchRes=7188(eff=5274,ineff=1914) resetRes=122(ineff=5,eff=117) | bc++=1919 bc--=5391 inv=12031
[DSB @ 300000 calls] bc=0 isBypassOn=true| real=172951 virt=15735 notrack=111313 | touchRes=14367(eff=12436,ineff=1931) resetRes=137(ineff=20,eff=117) | bc++=1951 bc--=12553 inv=13124
[DSB @ 400000 calls] bc=0 isBypassOn=true| real=272901 virt=15740 notrack=111358 | touchRes=24925(eff=22994,ineff=1931) resetRes=145(ineff=27,eff=118) | bc++=1958 bc--=23112 inv=13148
[DSB @ 500000 calls] bc=0 isBypassOn=true| real=336844 virt=20241 notrack=142914 | touchRes=33585(eff=31225,ineff=2360) resetRes=311(ineff=108,eff=203) | bc++=2468 bc--=31428 inv=18163
[DSB @ 600000 calls] bc=0 isBypassOn=true| real=419857 virt=22326 notrack=157816 | touchRes=50414(eff=47879,ineff=2535) resetRes=544(ineff=300,eff=244) | bc++=2835 bc--=48123 inv=20833
[DSB @ 700000 calls] bc=0 isBypassOn=true| real=498660 virt=25039 notrack=176300 | touchRes=65475(eff=62791,ineff=2684) resetRes=632(ineff=366,eff=266) | bc++=3050 bc--=63057 inv=24344
src/sim/simulate.cc:194: info: Entering event queue @ 28134598992500.  Starting simulation...
Switching CPUS @ tick 28134598992500
Simulation ends instruction count:250000000
switching cpus
**** REAL SIMULATION ****
src/sim/simulate.cc:194: info: Entering event queue @ 28134599127500.  Starting simulation...
[DSB @ 800000 calls] bc=0 isBypassOn=true| real=533169 virt=33238 notrack=233592 | touchRes=70549(eff=67250,ineff=3299) resetRes=926(ineff=555,eff=371) | bc++=3854 bc--=67621 inv=32363
[DSB @ 900000 calls] bc=0 isBypassOn=true| real=627329 virt=33976 notrack=238694 | touchRes=77754(eff=74438,ineff=3316) resetRes=985(ineff=611,eff=374) | bc++=3927 bc--=74812 inv=34847
[DSB @ 1000000 calls] bc=12 isBypassOn=false| real=650247 virt=43692 notrack=306060 | touchRes=80629(eff=76854,ineff=3775) resetRes=1009(ineff=619,eff=390) | bc++=4394 bc--=77244 inv=43590
[DSB @ 1100000 calls] bc=12 isBypassOn=false| real=666133 virt=54143 notrack=379723 | touchRes=82911(eff=78555,ineff=4356) resetRes=1145(ineff=678,eff=467) | bc++=5034 bc--=79022 inv=52904
[DSB @ 1200000 calls] bc=0 isBypassOn=true| real=702677 virt=61924 notrack=435398 | touchRes=86500(eff=81565,ineff=4935) resetRes=1207(ineff=696,eff=511) | bc++=5631 bc--=82076 inv=59296
[DSB @ 1300000 calls] bc=1 isBypassOn=true| real=794431 virt=62909 notrack=442659 | touchRes=97348(eff=92378,ineff=4970) resetRes=1371(ineff=852,eff=519) | bc++=5822 bc--=92897 inv=61895
[DSB @ 1400000 calls] bc=0 isBypassOn=true| real=869427 virt=66062 notrack=464510 | touchRes=108914(eff=103568,ineff=5346) resetRes=1633(ineff=1053,eff=580) | bc++=6399 bc--=104148 inv=65671
[DSB @ 1500000 calls] bc=0 isBypassOn=true| real=967529 virt=66301 notrack=466169 | touchRes=124104(eff=118744,ineff=5360) resetRes=1758(ineff=1165,eff=593) | bc++=6525 bc--=119337 inv=66066
[DSB @ 1600000 calls] bc=12 isBypassOn=false| real=1056713 virt=67664 notrack=475622 | touchRes=137394(eff=131973,ineff=5421) resetRes=2018(ineff=1405,eff=613) | bc++=6826 bc--=132586 inv=67791
[DSB @ 1700000 calls] bc=0 isBypassOn=true| real=1143525 virt=69301 notrack=487173 | touchRes=151337(eff=145731,ineff=5606) resetRes=2269(ineff=1590,eff=679) | bc++=7196 bc--=146410 inv=69326
[DSB @ 1800000 calls] bc=12 isBypassOn=false| real=1201520 virt=74733 notrack=523746 | touchRes=156059(eff=150252,ineff=5807) resetRes=2312(ineff=1608,eff=704) | bc++=7415 bc--=150956 inv=75541
[DSB @ 1900000 calls] bc=12 isBypassOn=false| real=1201524 virt=87285 notrack=611190 | touchRes=156857(eff=150252,ineff=6605) resetRes=2396(ineff=1608,eff=788) | bc++=8213 bc--=151040 inv=85704
[DSB @ 2000000 calls] bc=12 isBypassOn=false| real=1201534 virt=99618 notrack=698847 | touchRes=157496(eff=150253,ineff=7243) resetRes=2450(ineff=1608,eff=842) | bc++=8851 bc--=151095 inv=95909
[DSB @ 2100000 calls] bc=12 isBypassOn=false| real=1281371 virt=102149 notrack=716479 | touchRes=168492(eff=160971,ineff=7521) resetRes=2558(ineff=1680,eff=878) | bc++=9201 bc--=161849 inv=98423
[DSB @ 2200000 calls] bc=0 isBypassOn=true| real=1336839 virt=107741 notrack=755419 | touchRes=172366(eff=164598,ineff=7768) resetRes=2665(ineff=1738,eff=927) | bc++=9506 bc--=165525 inv=106248
[DSB @ 2300000 calls] bc=12 isBypassOn=false| real=1372699 virt=115631 notrack=811669 | touchRes=176400(eff=168048,ineff=8352) resetRes=2760(ineff=1765,eff=995) | bc++=10117 bc--=169043 inv=113361
[DSB @ 2400000 calls] bc=12 isBypassOn=false| real=1372737 virt=128132 notrack=899130 | touchRes=177256(eff=168058,ineff=9198) resetRes=2831(ineff=1765,eff=1066) | bc++=10963 bc--=169124 inv=123538
[DSB @ 2500000 calls] bc=0 isBypassOn=true| real=1454089 virt=130422 notrack=915488 | touchRes=184643(eff=175246,ineff=9397) resetRes=2892(ineff=1789,eff=1103) | bc++=11186 bc--=176349 inv=126707
[DSB @ 2600000 calls] bc=12 isBypassOn=false| real=1521800 virt=134378 notrack=943821 | touchRes=190499(eff=180803,ineff=9696) resetRes=3310(ineff=2168,eff=1142) | bc++=11864 bc--=181945 inv=130650
[DSB @ 2700000 calls] bc=0 isBypassOn=true| real=1547518 virt=143586 notrack=1008895 | touchRes=193731(eff=183724,ineff=10007) resetRes=3365(ineff=2173,eff=1192) | bc++=12180 bc--=184916 inv=138505
[DSB @ 2800000 calls] bc=12 isBypassOn=false| real=1572605 virt=152976 notrack=1074418 | touchRes=196242(eff=185653,ineff=10589) resetRes=3573(ineff=2307,eff=1266) | bc++=12896 bc--=186919 inv=147456
[DSB @ 2900000 calls] bc=12 isBypassOn=false| real=1572612 virt=165590 notrack=1161797 | touchRes=196837(eff=185653,ineff=11184) resetRes=3618(ineff=2307,eff=1311) | bc++=13491 bc--=186964 inv=157970
[DSB @ 3000000 calls] bc=0 isBypassOn=true| real=1598933 virt=174624 notrack=1226442 | touchRes=200612(eff=188680,ineff=11932) resetRes=3953(ineff=2530,eff=1423) | bc++=14462 bc--=190103 inv=165994
[DSB @ 3100000 calls] bc=12 isBypassOn=false| real=1622282 virt=184120 notrack=1293597 | touchRes=201303(eff=189004,ineff=12299) resetRes=4018(ineff=2551,eff=1467) | bc++=14850 bc--=190471 inv=174927
[DSB @ 3200000 calls] bc=12 isBypassOn=false| real=1622284 virt=196577 notrack=1381138 | touchRes=202096(eff=189004,ineff=13092) resetRes=4071(ineff=2551,eff=1520) | bc++=15643 bc--=190524 inv=185047
[DSB @ 3300000 calls] bc=0 isBypassOn=true| real=1656803 virt=204704 notrack=1438492 | touchRes=204019(eff=190593,ineff=13426) resetRes=4123(ineff=2562,eff=1561) | bc++=15988 bc--=192154 inv=191929
[DSB @ 3400000 calls] bc=0 isBypassOn=true| real=1751030 virt=205415 notrack=1443554 | touchRes=212157(eff=198669,ineff=13488) resetRes=4199(ineff=2623,eff=1576) | bc++=16111 bc--=200245 inv=194594
[DSB @ 3500000 calls] bc=12 isBypassOn=false| real=1842881 virt=206452 notrack=1450666 | touchRes=219253(eff=205655,ineff=13598) resetRes=4424(ineff=2844,eff=1580) | bc++=16442 bc--=207235 inv=196869
[DSB @ 3600000 calls] bc=0 isBypassOn=true| real=1897110 virt=212119 notrack=1490770 | touchRes=221703(eff=207818,ineff=13885) resetRes=4486(ineff=2866,eff=1620) | bc++=16751 bc--=209438 inv=201813
[DSB @ 3700000 calls] bc=0 isBypassOn=true| real=1976634 virt=214630 notrack=1508735 | touchRes=226445(eff=212256,ineff=14189) resetRes=4723(ineff=3052,eff=1671) | bc++=17241 bc--=213927 inv=204521
[DSB @ 3800000 calls] bc=12 isBypassOn=false| real=2024260 virt=221146 notrack=1554593 | touchRes=228018(eff=213581,ineff=14437) resetRes=4852(ineff=3172,eff=1680) | bc++=17609 bc--=215261 inv=211490
[DSB @ 3900000 calls] bc=12 isBypassOn=false| real=2046318 virt=230982 notrack=1622699 | touchRes=230314(eff=215299,ineff=15015) resetRes=4992(ineff=3266,eff=1726) | bc++=18281 bc--=217025 inv=220727
[DSB @ 4000000 calls] bc=12 isBypassOn=false| real=2046340 virt=243518 notrack=1710141 | touchRes=231070(eff=215299,ineff=15771) resetRes=5033(ineff=3266,eff=1767) | bc++=19037 bc--=217066 inv=230954
[DSB @ 4100000 calls] bc=12 isBypassOn=false| real=2046348 virt=256047 notrack=1797604 | touchRes=231986(eff=215299,ineff=16687) resetRes=5091(ineff=3266,eff=1825) | bc++=19953 bc--=217124 inv=241034
[DSB @ 4200000 calls] bc=12 isBypassOn=true| real=2046351 virt=268652 notrack=1884996 | touchRes=232628(eff=215299,ineff=17329) resetRes=5137(ineff=3266,eff=1871) | bc++=20595 bc--=217170 inv=251455
[DSB @ 4300000 calls] bc=0 isBypassOn=true| real=2131095 virt=270531 notrack=1898373 | touchRes=238811(eff=221235,ineff=17576) resetRes=5509(ineff=3561,eff=1948) | bc++=21137 bc--=223183 inv=254073
Exiting @ tick 28506039131000 because a thread reached the max instruction count
