warn: The `get_runtime_isa` function is deprecated. Please migrate away from using this function.
warn: The se.py script is deprecated. It will be removed in future releases of  gem5.
warn: The `get_runtime_isa` function is deprecated. Please migrate away from using this function.
Global frequency set at 1000000000000 ticks per second
src/mem/dram_interface.cc:690: warn: DRAM device capacity (8192 Mbytes) does not match the address range assigned (16384 Mbytes)
src/base/statistics.hh:279: warn: One of the stats is a legacy stat. Legacy stat is a stat that does not belong to any statistics::Group. Legacy stat is deprecated.
src/base/remote_gdb.cc:418: warn: Sockets disabled, not accepting gdb connections
src/sim/process.cc:396: warn: Checkpoints for pipes, device drivers and sockets do not work.
gem5 Simulator System.  https://www.gem5.org
gem5 is copyrighted software; use the --copyright option for details.

gem5 version 23.0.0.1
gem5 compiled Apr  6 2026 01:50:35
gem5 started Apr  7 2026 10:15:07
gem5 executing on b49ce2a326be, pid 83246
command line: /opt/gem5/build/X86/gem5.opt --outdir=/workspace/results_l3/4MB/policy0Config2/bwaves /workspace/configs/run_spec_l3.py --rp-type=DSBRP --l3-size=4MB --l3-assoc=16 --cpu-type=DerivO3CPU --cmd=./speed_bwaves_base.gem5-x86 --options=bwaves_1 --mem-size=16GB --maxinst=250000000 --caches --l2cache --l1d_size=32kB --l1i_size=32kB --l1d_assoc=8 --l1i_assoc=8 --l2_size=256kB --l2_assoc=8 --checkpoint-restore=1 --checkpoint-dir=/workspace/checkpoints/bwaves/m5out --restore-with-cpu=AtomicSimpleCPU --standard-switch=1 --warmup-insts=50000000 --input=bwaves_1.in --dsb-enable-bypass=true --dsb-enable-aging=false --dsb-bypass-counter=6 --dsb-virtual-bypass-counter=3 --dsb-random-promotion=0 --dsb-minimum-bypass-counter=12

info: Standard input is not a terminal, disabling listeners.
Replacement policy: DSBRP
L1I size: 32kB, assoc: 8
L1D size: 32kB, assoc: 8
L2 size: 256kB, assoc: 8
L3 size: 4MB, L3 assoc: 16
Switch at instruction count:1
src/sim/simulate.cc:194: info: Entering event queue @ 26022662981500.  Starting simulation...
src/sim/simulate.cc:194: info: Entering event queue @ 26022662983500.  Starting simulation...
src/sim/power_state.cc:105: warn: PowerState: Already in the requested power state, request ignored
Switched CPUS @ tick 26022662983500
switching cpus
Switch at instruction count:50000000
src/sim/simulate.cc:194: info: Entering event queue @ 26022662984000.  Starting simulation...
[DSB @ 100000 calls] bc=12 isBypassOn=false| real=22 virt=12455 notrack=87522 | touchRes=9367(eff=16,ineff=9351) resetRes=0(ineff=0,eff=0) | bc++=9351 bc--=16 inv=1760
[DSB @ 200000 calls] bc=12 isBypassOn=false| real=22 virt=24908 notrack=175069 | touchRes=15786(eff=16,ineff=15770) resetRes=0(ineff=0,eff=0) | bc++=15770 bc--=16 inv=6845
[DSB @ 300000 calls] bc=12 isBypassOn=false| real=22 virt=37360 notrack=262617 | touchRes=20954(eff=16,ineff=20938) resetRes=0(ineff=0,eff=0) | bc++=20938 bc--=16 inv=13206
[DSB @ 400000 calls] bc=12 isBypassOn=false| real=22 virt=49866 notrack=350111 | touchRes=26135(eff=16,ineff=26119) resetRes=0(ineff=0,eff=0) | bc++=26119 bc--=16 inv=19590
[DSB @ 500000 calls] bc=12 isBypassOn=false| real=22 virt=62327 notrack=437650 | touchRes=31292(eff=16,ineff=31276) resetRes=0(ineff=0,eff=0) | bc++=31276 bc--=16 inv=26034
[DSB @ 600000 calls] bc=12 isBypassOn=false| real=22 virt=74881 notrack=525096 | touchRes=36320(eff=16,ineff=36304) resetRes=0(ineff=0,eff=0) | bc++=36304 bc--=16 inv=32624
[DSB @ 700000 calls] bc=12 isBypassOn=false| real=22 virt=87493 notrack=612484 | touchRes=41346(eff=16,ineff=41330) resetRes=0(ineff=0,eff=0) | bc++=41330 bc--=16 inv=39217
[DSB @ 800000 calls] bc=12 isBypassOn=false| real=22 virt=100155 notrack=699822 | touchRes=46534(eff=16,ineff=46518) resetRes=0(ineff=0,eff=0) | bc++=46518 bc--=16 inv=45813
[DSB @ 900000 calls] bc=12 isBypassOn=false| real=22 virt=112650 notrack=787327 | touchRes=51558(eff=16,ineff=51542) resetRes=0(ineff=0,eff=0) | bc++=51542 bc--=16 inv=52350
[DSB @ 1000000 calls] bc=12 isBypassOn=false| real=22 virt=125067 notrack=874910 | touchRes=56594(eff=16,ineff=56578) resetRes=0(ineff=0,eff=0) | bc++=56578 bc--=16 inv=58860
[DSB @ 1100000 calls] bc=12 isBypassOn=false| real=22 virt=137505 notrack=962472 | touchRes=61654(eff=16,ineff=61638) resetRes=0(ineff=0,eff=0) | bc++=61638 bc--=16 inv=65270
[DSB @ 1200000 calls] bc=12 isBypassOn=false| real=22 virt=150015 notrack=1049962 | touchRes=66831(eff=16,ineff=66815) resetRes=0(ineff=0,eff=0) | bc++=66815 bc--=16 inv=71720
[DSB @ 1300000 calls] bc=12 isBypassOn=false| real=22 virt=162413 notrack=1137564 | touchRes=71797(eff=16,ineff=71781) resetRes=0(ineff=0,eff=0) | bc++=71781 bc--=16 inv=78260
[DSB @ 1400000 calls] bc=12 isBypassOn=false| real=22 virt=174824 notrack=1225153 | touchRes=76803(eff=16,ineff=76787) resetRes=0(ineff=0,eff=0) | bc++=76787 bc--=16 inv=84734
[DSB @ 1500000 calls] bc=12 isBypassOn=false| real=22 virt=187362 notrack=1312615 | touchRes=81856(eff=16,ineff=81840) resetRes=0(ineff=0,eff=0) | bc++=81840 bc--=16 inv=91276
[DSB @ 1600000 calls] bc=12 isBypassOn=false| real=22 virt=199974 notrack=1400003 | touchRes=86998(eff=16,ineff=86982) resetRes=0(ineff=0,eff=0) | bc++=86982 bc--=16 inv=97814
src/sim/simulate.cc:194: info: Entering event queue @ 26278320152500.  Starting simulation...
Switching CPUS @ tick 26278320152500
Simulation ends instruction count:250000000
switching cpus
**** REAL SIMULATION ****
src/sim/simulate.cc:194: info: Entering event queue @ 26278320154500.  Starting simulation...
[DSB @ 1700000 calls] bc=12 isBypassOn=false| real=22 virt=212484 notrack=1487493 | touchRes=92099(eff=16,ineff=92083) resetRes=0(ineff=0,eff=0) | bc++=92083 bc--=16 inv=104311
[DSB @ 1800000 calls] bc=12 isBypassOn=false| real=22 virt=224930 notrack=1575047 | touchRes=97180(eff=16,ineff=97164) resetRes=0(ineff=0,eff=0) | bc++=97164 bc--=16 inv=110779
[DSB @ 1900000 calls] bc=12 isBypassOn=false| real=22 virt=237389 notrack=1662588 | touchRes=102180(eff=16,ineff=102164) resetRes=0(ineff=0,eff=0) | bc++=102164 bc--=16 inv=117329
[DSB @ 2000000 calls] bc=12 isBypassOn=false| real=22 virt=249725 notrack=1750252 | touchRes=107281(eff=16,ineff=107265) resetRes=0(ineff=0,eff=0) | bc++=107265 bc--=16 inv=123648
[DSB @ 2100000 calls] bc=0 isBypassOn=true| real=37671 virt=257547 notrack=1804781 | touchRes=113380(eff=3020,ineff=110360) resetRes=11(ineff=0,eff=11) | bc++=110360 bc--=3031 inv=127767
[DSB @ 2200000 calls] bc=0 isBypassOn=true| real=137671 virt=257547 notrack=1804781 | touchRes=113380(eff=3020,ineff=110360) resetRes=11(ineff=0,eff=11) | bc++=110360 bc--=3031 inv=127767
[DSB @ 2300000 calls] bc=0 isBypassOn=true| real=237671 virt=257547 notrack=1804781 | touchRes=113380(eff=3020,ineff=110360) resetRes=11(ineff=0,eff=11) | bc++=110360 bc--=3031 inv=127767
[DSB @ 2400000 calls] bc=0 isBypassOn=true| real=337671 virt=257547 notrack=1804781 | touchRes=113380(eff=3020,ineff=110360) resetRes=11(ineff=0,eff=11) | bc++=110360 bc--=3031 inv=127767
[DSB @ 2500000 calls] bc=0 isBypassOn=true| real=437671 virt=257547 notrack=1804781 | touchRes=113380(eff=3020,ineff=110360) resetRes=11(ineff=0,eff=11) | bc++=110360 bc--=3031 inv=127767
[DSB @ 2600000 calls] bc=0 isBypassOn=true| real=537671 virt=257547 notrack=1804781 | touchRes=113380(eff=3020,ineff=110360) resetRes=11(ineff=0,eff=11) | bc++=110360 bc--=3031 inv=127767
[DSB @ 2700000 calls] bc=0 isBypassOn=true| real=637671 virt=257547 notrack=1804781 | touchRes=113380(eff=3020,ineff=110360) resetRes=11(ineff=0,eff=11) | bc++=110360 bc--=3031 inv=127767
[DSB @ 2800000 calls] bc=0 isBypassOn=true| real=737671 virt=257547 notrack=1804781 | touchRes=113380(eff=3020,ineff=110360) resetRes=11(ineff=0,eff=11) | bc++=110360 bc--=3031 inv=127767
[DSB @ 2900000 calls] bc=0 isBypassOn=true| real=837671 virt=257547 notrack=1804781 | touchRes=113380(eff=3020,ineff=110360) resetRes=11(ineff=0,eff=11) | bc++=110360 bc--=3031 inv=127767
[DSB @ 3000000 calls] bc=0 isBypassOn=true| real=937671 virt=257547 notrack=1804781 | touchRes=113380(eff=3020,ineff=110360) resetRes=11(ineff=0,eff=11) | bc++=110360 bc--=3031 inv=127767
[DSB @ 3100000 calls] bc=0 isBypassOn=true| real=1037671 virt=257547 notrack=1804781 | touchRes=113380(eff=3020,ineff=110360) resetRes=11(ineff=0,eff=11) | bc++=110360 bc--=3031 inv=127767
[DSB @ 3200000 calls] bc=0 isBypassOn=true| real=1137671 virt=257547 notrack=1804781 | touchRes=113380(eff=3020,ineff=110360) resetRes=11(ineff=0,eff=11) | bc++=110360 bc--=3031 inv=127767
[DSB @ 3300000 calls] bc=0 isBypassOn=true| real=1237671 virt=257547 notrack=1804781 | touchRes=113380(eff=3020,ineff=110360) resetRes=11(ineff=0,eff=11) | bc++=110360 bc--=3031 inv=127767
[DSB @ 3400000 calls] bc=0 isBypassOn=true| real=1337671 virt=257547 notrack=1804781 | touchRes=113380(eff=3020,ineff=110360) resetRes=11(ineff=0,eff=11) | bc++=110360 bc--=3031 inv=127767
[DSB @ 3500000 calls] bc=0 isBypassOn=true| real=1437671 virt=257547 notrack=1804781 | touchRes=113380(eff=3020,ineff=110360) resetRes=11(ineff=0,eff=11) | bc++=110360 bc--=3031 inv=127767
[DSB @ 3600000 calls] bc=0 isBypassOn=true| real=1537671 virt=257547 notrack=1804781 | touchRes=113380(eff=3020,ineff=110360) resetRes=11(ineff=0,eff=11) | bc++=110360 bc--=3031 inv=127767
[DSB @ 3700000 calls] bc=0 isBypassOn=true| real=1637671 virt=257547 notrack=1804781 | touchRes=113380(eff=3020,ineff=110360) resetRes=11(ineff=0,eff=11) | bc++=110360 bc--=3031 inv=127767
[DSB @ 3800000 calls] bc=0 isBypassOn=true| real=1737671 virt=257547 notrack=1804781 | touchRes=113380(eff=3020,ineff=110360) resetRes=11(ineff=0,eff=11) | bc++=110360 bc--=3031 inv=127767
[DSB @ 3900000 calls] bc=0 isBypassOn=true| real=1837671 virt=257547 notrack=1804781 | touchRes=113380(eff=3020,ineff=110360) resetRes=11(ineff=0,eff=11) | bc++=110360 bc--=3031 inv=127767
[DSB @ 4000000 calls] bc=0 isBypassOn=true| real=1937671 virt=257547 notrack=1804781 | touchRes=113380(eff=3020,ineff=110360) resetRes=11(ineff=0,eff=11) | bc++=110360 bc--=3031 inv=127767
[DSB @ 4100000 calls] bc=0 isBypassOn=true| real=2037671 virt=257547 notrack=1804781 | touchRes=113380(eff=3020,ineff=110360) resetRes=11(ineff=0,eff=11) | bc++=110360 bc--=3031 inv=127767
[DSB @ 4200000 calls] bc=0 isBypassOn=true| real=2137671 virt=257547 notrack=1804781 | touchRes=113380(eff=3020,ineff=110360) resetRes=11(ineff=0,eff=11) | bc++=110360 bc--=3031 inv=127767
[DSB @ 4300000 calls] bc=0 isBypassOn=true| real=2237671 virt=257547 notrack=1804781 | touchRes=113380(eff=3020,ineff=110360) resetRes=11(ineff=0,eff=11) | bc++=110360 bc--=3031 inv=127767
[DSB @ 4400000 calls] bc=0 isBypassOn=true| real=2337671 virt=257547 notrack=1804781 | touchRes=113380(eff=3020,ineff=110360) resetRes=11(ineff=0,eff=11) | bc++=110360 bc--=3031 inv=127767
[DSB @ 4500000 calls] bc=0 isBypassOn=true| real=2437671 virt=257547 notrack=1804781 | touchRes=113380(eff=3020,ineff=110360) resetRes=11(ineff=0,eff=11) | bc++=110360 bc--=3031 inv=127767
[DSB @ 4600000 calls] bc=0 isBypassOn=true| real=2537671 virt=257547 notrack=1804781 | touchRes=113380(eff=3020,ineff=110360) resetRes=11(ineff=0,eff=11) | bc++=110360 bc--=3031 inv=127767
[DSB @ 4700000 calls] bc=0 isBypassOn=true| real=2637671 virt=257547 notrack=1804781 | touchRes=113380(eff=3020,ineff=110360) resetRes=11(ineff=0,eff=11) | bc++=110360 bc--=3031 inv=127767
[DSB @ 4800000 calls] bc=0 isBypassOn=true| real=2737671 virt=257547 notrack=1804781 | touchRes=113380(eff=3020,ineff=110360) resetRes=11(ineff=0,eff=11) | bc++=110360 bc--=3031 inv=127767
[DSB @ 4900000 calls] bc=0 isBypassOn=true| real=2837671 virt=257547 notrack=1804781 | touchRes=113380(eff=3020,ineff=110360) resetRes=11(ineff=0,eff=11) | bc++=110360 bc--=3031 inv=127767
[DSB @ 5000000 calls] bc=0 isBypassOn=true| real=2937671 virt=257547 notrack=1804781 | touchRes=113380(eff=3020,ineff=110360) resetRes=11(ineff=0,eff=11) | bc++=110360 bc--=3031 inv=127767
[DSB @ 5100000 calls] bc=0 isBypassOn=true| real=3037671 virt=257547 notrack=1804781 | touchRes=113380(eff=3020,ineff=110360) resetRes=11(ineff=0,eff=11) | bc++=110360 bc--=3031 inv=127767
[DSB @ 5200000 calls] bc=0 isBypassOn=true| real=3137671 virt=257547 notrack=1804781 | touchRes=113380(eff=3020,ineff=110360) resetRes=11(ineff=0,eff=11) | bc++=110360 bc--=3031 inv=127767
[DSB @ 5300000 calls] bc=0 isBypassOn=true| real=3237671 virt=257547 notrack=1804781 | touchRes=113380(eff=3020,ineff=110360) resetRes=11(ineff=0,eff=11) | bc++=110360 bc--=3031 inv=127767
[DSB @ 5400000 calls] bc=0 isBypassOn=true| real=3337671 virt=257547 notrack=1804781 | touchRes=113380(eff=3020,ineff=110360) resetRes=11(ineff=0,eff=11) | bc++=110360 bc--=3031 inv=127767
[DSB @ 5500000 calls] bc=0 isBypassOn=true| real=3437671 virt=257547 notrack=1804781 | touchRes=113380(eff=3020,ineff=110360) resetRes=11(ineff=0,eff=11) | bc++=110360 bc--=3031 inv=127767
[DSB @ 5600000 calls] bc=0 isBypassOn=true| real=3537671 virt=257547 notrack=1804781 | touchRes=113380(eff=3020,ineff=110360) resetRes=11(ineff=0,eff=11) | bc++=110360 bc--=3031 inv=127767
[DSB @ 5700000 calls] bc=0 isBypassOn=true| real=3637671 virt=257547 notrack=1804781 | touchRes=113380(eff=3020,ineff=110360) resetRes=11(ineff=0,eff=11) | bc++=110360 bc--=3031 inv=127767
[DSB @ 5800000 calls] bc=0 isBypassOn=true| real=3737671 virt=257547 notrack=1804781 | touchRes=113380(eff=3020,ineff=110360) resetRes=11(ineff=0,eff=11) | bc++=110360 bc--=3031 inv=127767
[DSB @ 5900000 calls] bc=0 isBypassOn=true| real=3837671 virt=257547 notrack=1804781 | touchRes=113380(eff=3020,ineff=110360) resetRes=11(ineff=0,eff=11) | bc++=110360 bc--=3031 inv=127767
[DSB @ 6000000 calls] bc=0 isBypassOn=true| real=3937671 virt=257547 notrack=1804781 | touchRes=113380(eff=3020,ineff=110360) resetRes=11(ineff=0,eff=11) | bc++=110360 bc--=3031 inv=127767
[DSB @ 6100000 calls] bc=0 isBypassOn=true| real=4037671 virt=257547 notrack=1804781 | touchRes=113380(eff=3020,ineff=110360) resetRes=11(ineff=0,eff=11) | bc++=110360 bc--=3031 inv=127767
[DSB @ 6200000 calls] bc=0 isBypassOn=true| real=4137671 virt=257547 notrack=1804781 | touchRes=113380(eff=3020,ineff=110360) resetRes=11(ineff=0,eff=11) | bc++=110360 bc--=3031 inv=127767
[DSB @ 6300000 calls] bc=0 isBypassOn=true| real=4237671 virt=257547 notrack=1804781 | touchRes=113380(eff=3020,ineff=110360) resetRes=11(ineff=0,eff=11) | bc++=110360 bc--=3031 inv=127767
[DSB @ 6400000 calls] bc=0 isBypassOn=true| real=4337671 virt=257547 notrack=1804781 | touchRes=113380(eff=3020,ineff=110360) resetRes=11(ineff=0,eff=11) | bc++=110360 bc--=3031 inv=127767
[DSB @ 6500000 calls] bc=0 isBypassOn=true| real=4437671 virt=257547 notrack=1804781 | touchRes=113380(eff=3020,ineff=110360) resetRes=11(ineff=0,eff=11) | bc++=110360 bc--=3031 inv=127767
[DSB @ 6600000 calls] bc=0 isBypassOn=true| real=4537671 virt=257547 notrack=1804781 | touchRes=113380(eff=3020,ineff=110360) resetRes=11(ineff=0,eff=11) | bc++=110360 bc--=3031 inv=127767
[DSB @ 6700000 calls] bc=0 isBypassOn=true| real=4637671 virt=257547 notrack=1804781 | touchRes=113380(eff=3020,ineff=110360) resetRes=11(ineff=0,eff=11) | bc++=110360 bc--=3031 inv=127767
[DSB @ 6800000 calls] bc=0 isBypassOn=true| real=4737671 virt=257547 notrack=1804781 | touchRes=113380(eff=3020,ineff=110360) resetRes=11(ineff=0,eff=11) | bc++=110360 bc--=3031 inv=127767
[DSB @ 6900000 calls] bc=0 isBypassOn=true| real=4837671 virt=257547 notrack=1804781 | touchRes=113380(eff=3020,ineff=110360) resetRes=11(ineff=0,eff=11) | bc++=110360 bc--=3031 inv=127767
[DSB @ 7000000 calls] bc=0 isBypassOn=true| real=4937671 virt=257547 notrack=1804781 | touchRes=113380(eff=3020,ineff=110360) resetRes=11(ineff=0,eff=11) | bc++=110360 bc--=3031 inv=127767
[DSB @ 7100000 calls] bc=0 isBypassOn=true| real=5037671 virt=257547 notrack=1804781 | touchRes=113380(eff=3020,ineff=110360) resetRes=11(ineff=0,eff=11) | bc++=110360 bc--=3031 inv=127767
[DSB @ 7200000 calls] bc=0 isBypassOn=true| real=5137671 virt=257547 notrack=1804781 | touchRes=113380(eff=3020,ineff=110360) resetRes=11(ineff=0,eff=11) | bc++=110360 bc--=3031 inv=127767
[DSB @ 7300000 calls] bc=0 isBypassOn=true| real=5237671 virt=257547 notrack=1804781 | touchRes=113380(eff=3020,ineff=110360) resetRes=11(ineff=0,eff=11) | bc++=110360 bc--=3031 inv=127767
[DSB @ 7400000 calls] bc=0 isBypassOn=true| real=5337671 virt=257547 notrack=1804781 | touchRes=113380(eff=3020,ineff=110360) resetRes=11(ineff=0,eff=11) | bc++=110360 bc--=3031 inv=127767
[DSB @ 7500000 calls] bc=0 isBypassOn=true| real=5437671 virt=257547 notrack=1804781 | touchRes=113380(eff=3020,ineff=110360) resetRes=11(ineff=0,eff=11) | bc++=110360 bc--=3031 inv=127767
[DSB @ 7600000 calls] bc=0 isBypassOn=true| real=5537671 virt=257547 notrack=1804781 | touchRes=113380(eff=3020,ineff=110360) resetRes=11(ineff=0,eff=11) | bc++=110360 bc--=3031 inv=127767
[DSB @ 7700000 calls] bc=0 isBypassOn=true| real=5637671 virt=257547 notrack=1804781 | touchRes=113380(eff=3020,ineff=110360) resetRes=11(ineff=0,eff=11) | bc++=110360 bc--=3031 inv=127767
[DSB @ 7800000 calls] bc=0 isBypassOn=true| real=5737671 virt=257547 notrack=1804781 | touchRes=113380(eff=3020,ineff=110360) resetRes=11(ineff=0,eff=11) | bc++=110360 bc--=3031 inv=127767
[DSB @ 7900000 calls] bc=0 isBypassOn=true| real=5837671 virt=257547 notrack=1804781 | touchRes=113380(eff=3020,ineff=110360) resetRes=11(ineff=0,eff=11) | bc++=110360 bc--=3031 inv=127767
[DSB @ 8000000 calls] bc=0 isBypassOn=true| real=5937671 virt=257547 notrack=1804781 | touchRes=113380(eff=3020,ineff=110360) resetRes=11(ineff=0,eff=11) | bc++=110360 bc--=3031 inv=127767
[DSB @ 8100000 calls] bc=0 isBypassOn=true| real=6037671 virt=257547 notrack=1804781 | touchRes=113380(eff=3020,ineff=110360) resetRes=11(ineff=0,eff=11) | bc++=110360 bc--=3031 inv=127767
[DSB @ 8200000 calls] bc=0 isBypassOn=true| real=6137671 virt=257547 notrack=1804781 | touchRes=113380(eff=3020,ineff=110360) resetRes=11(ineff=0,eff=11) | bc++=110360 bc--=3031 inv=127767
[DSB @ 8300000 calls] bc=0 isBypassOn=true| real=6237671 virt=257547 notrack=1804781 | touchRes=113380(eff=3020,ineff=110360) resetRes=11(ineff=0,eff=11) | bc++=110360 bc--=3031 inv=127767
[DSB @ 8400000 calls] bc=0 isBypassOn=true| real=6337671 virt=257547 notrack=1804781 | touchRes=113380(eff=3020,ineff=110360) resetRes=11(ineff=0,eff=11) | bc++=110360 bc--=3031 inv=127767
[DSB @ 8500000 calls] bc=0 isBypassOn=true| real=6437671 virt=257547 notrack=1804781 | touchRes=113380(eff=3020,ineff=110360) resetRes=11(ineff=0,eff=11) | bc++=110360 bc--=3031 inv=127767
[DSB @ 8600000 calls] bc=0 isBypassOn=true| real=6537671 virt=257547 notrack=1804781 | touchRes=113380(eff=3020,ineff=110360) resetRes=11(ineff=0,eff=11) | bc++=110360 bc--=3031 inv=127767
[DSB @ 8700000 calls] bc=0 isBypassOn=true| real=6637671 virt=257547 notrack=1804781 | touchRes=113380(eff=3020,ineff=110360) resetRes=11(ineff=0,eff=11) | bc++=110360 bc--=3031 inv=127767
[DSB @ 8800000 calls] bc=0 isBypassOn=true| real=6737671 virt=257547 notrack=1804781 | touchRes=113380(eff=3020,ineff=110360) resetRes=11(ineff=0,eff=11) | bc++=110360 bc--=3031 inv=127767
[DSB @ 8900000 calls] bc=0 isBypassOn=true| real=6837671 virt=257547 notrack=1804781 | touchRes=113380(eff=3020,ineff=110360) resetRes=11(ineff=0,eff=11) | bc++=110360 bc--=3031 inv=127767
[DSB @ 9000000 calls] bc=0 isBypassOn=true| real=6937671 virt=257547 notrack=1804781 | touchRes=113380(eff=3020,ineff=110360) resetRes=11(ineff=0,eff=11) | bc++=110360 bc--=3031 inv=127767
[DSB @ 9100000 calls] bc=0 isBypassOn=true| real=7037671 virt=257547 notrack=1804781 | touchRes=113380(eff=3020,ineff=110360) resetRes=11(ineff=0,eff=11) | bc++=110360 bc--=3031 inv=127767
[DSB @ 9200000 calls] bc=0 isBypassOn=true| real=7137671 virt=257547 notrack=1804781 | touchRes=113380(eff=3020,ineff=110360) resetRes=11(ineff=0,eff=11) | bc++=110360 bc--=3031 inv=127767
[DSB @ 9300000 calls] bc=0 isBypassOn=true| real=7237671 virt=257547 notrack=1804781 | touchRes=113380(eff=3020,ineff=110360) resetRes=11(ineff=0,eff=11) | bc++=110360 bc--=3031 inv=127767
[DSB @ 9400000 calls] bc=0 isBypassOn=true| real=7337671 virt=257547 notrack=1804781 | touchRes=113380(eff=3020,ineff=110360) resetRes=11(ineff=0,eff=11) | bc++=110360 bc--=3031 inv=127767
[DSB @ 9500000 calls] bc=0 isBypassOn=true| real=7437671 virt=257547 notrack=1804781 | touchRes=113380(eff=3020,ineff=110360) resetRes=11(ineff=0,eff=11) | bc++=110360 bc--=3031 inv=127767
[DSB @ 9600000 calls] bc=0 isBypassOn=true| real=7537671 virt=257547 notrack=1804781 | touchRes=113380(eff=3020,ineff=110360) resetRes=11(ineff=0,eff=11) | bc++=110360 bc--=3031 inv=127767
[DSB @ 9700000 calls] bc=0 isBypassOn=true| real=7637671 virt=257547 notrack=1804781 | touchRes=113380(eff=3020,ineff=110360) resetRes=11(ineff=0,eff=11) | bc++=110360 bc--=3031 inv=127767
[DSB @ 9800000 calls] bc=0 isBypassOn=true| real=7737671 virt=257547 notrack=1804781 | touchRes=113380(eff=3020,ineff=110360) resetRes=11(ineff=0,eff=11) | bc++=110360 bc--=3031 inv=127767
[DSB @ 9900000 calls] bc=0 isBypassOn=true| real=7837671 virt=257547 notrack=1804781 | touchRes=113380(eff=3020,ineff=110360) resetRes=11(ineff=0,eff=11) | bc++=110360 bc--=3031 inv=127767
[DSB @ 10000000 calls] bc=0 isBypassOn=true| real=7937671 virt=257547 notrack=1804781 | touchRes=113380(eff=3020,ineff=110360) resetRes=11(ineff=0,eff=11) | bc++=110360 bc--=3031 inv=127767
[DSB @ 10100000 calls] bc=0 isBypassOn=true| real=8037671 virt=257547 notrack=1804781 | touchRes=113380(eff=3020,ineff=110360) resetRes=11(ineff=0,eff=11) | bc++=110360 bc--=3031 inv=127767
[DSB @ 10200000 calls] bc=0 isBypassOn=true| real=8137671 virt=257547 notrack=1804781 | touchRes=113380(eff=3020,ineff=110360) resetRes=11(ineff=0,eff=11) | bc++=110360 bc--=3031 inv=127767
[DSB @ 10300000 calls] bc=0 isBypassOn=true| real=8237671 virt=257547 notrack=1804781 | touchRes=113380(eff=3020,ineff=110360) resetRes=11(ineff=0,eff=11) | bc++=110360 bc--=3031 inv=127767
[DSB @ 10400000 calls] bc=0 isBypassOn=true| real=8337671 virt=257547 notrack=1804781 | touchRes=113380(eff=3020,ineff=110360) resetRes=11(ineff=0,eff=11) | bc++=110360 bc--=3031 inv=127767
[DSB @ 10500000 calls] bc=0 isBypassOn=true| real=8437671 virt=257547 notrack=1804781 | touchRes=113380(eff=3020,ineff=110360) resetRes=11(ineff=0,eff=11) | bc++=110360 bc--=3031 inv=127767
[DSB @ 10600000 calls] bc=0 isBypassOn=true| real=8537671 virt=257547 notrack=1804781 | touchRes=113380(eff=3020,ineff=110360) resetRes=11(ineff=0,eff=11) | bc++=110360 bc--=3031 inv=127767
[DSB @ 10700000 calls] bc=0 isBypassOn=true| real=8637671 virt=257547 notrack=1804781 | touchRes=113380(eff=3020,ineff=110360) resetRes=11(ineff=0,eff=11) | bc++=110360 bc--=3031 inv=127767
[DSB @ 10800000 calls] bc=0 isBypassOn=true| real=8737671 virt=257547 notrack=1804781 | touchRes=113380(eff=3020,ineff=110360) resetRes=11(ineff=0,eff=11) | bc++=110360 bc--=3031 inv=127767
[DSB @ 10900000 calls] bc=0 isBypassOn=true| real=8837671 virt=257547 notrack=1804781 | touchRes=116875(eff=6515,ineff=110360) resetRes=11(ineff=0,eff=11) | bc++=110360 bc--=6526 inv=127767
[DSB @ 11000000 calls] bc=12 isBypassOn=false| real=8887938 virt=263810 notrack=1848251 | touchRes=123675(eff=11425,ineff=112250) resetRes=2960(ineff=2669,eff=291) | bc++=114919 bc--=11716 inv=133830
[DSB @ 11100000 calls] bc=0 isBypassOn=true| real=8897770 virt=275140 notrack=1927089 | touchRes=131122(eff=14273,ineff=116849) resetRes=3241(ineff=2678,eff=563) | bc++=119527 bc--=14836 inv=140361
[DSB @ 11200000 calls] bc=0 isBypassOn=true| real=8971437 virt=278439 notrack=1950123 | touchRes=143979(eff=25895,ineff=118084) resetRes=3328(ineff=2737,eff=591) | bc++=120821 bc--=26486 inv=155793
[DSB @ 11300000 calls] bc=12 isBypassOn=false| real=9017951 virt=285242 notrack=1996806 | touchRes=153399(eff=32853,ineff=120546) resetRes=3558(ineff=2854,eff=704) | bc++=123400 bc--=33557 inv=169588
[DSB @ 11400000 calls] bc=12 isBypassOn=false| real=9017953 virt=297868 notrack=2084178 | touchRes=158225(eff=32854,ineff=125371) resetRes=3872(ineff=2854,eff=1018) | bc++=128225 bc--=33872 inv=176115
[DSB @ 11500000 calls] bc=12 isBypassOn=false| real=9017954 virt=310430 notrack=2171615 | touchRes=162985(eff=32854,ineff=130131) resetRes=4181(ineff=2854,eff=1327) | bc++=132985 bc--=34181 inv=182641
[DSB @ 11600000 calls] bc=12 isBypassOn=false| real=9017959 virt=322849 notrack=2259191 | touchRes=167805(eff=32857,ineff=134948) resetRes=4510(ineff=2854,eff=1656) | bc++=137802 bc--=34513 inv=189022
[DSB @ 11700000 calls] bc=12 isBypassOn=false| real=9017961 virt=335443 notrack=2346595 | touchRes=172579(eff=32859,ineff=139720) resetRes=4817(ineff=2854,eff=1963) | bc++=142574 bc--=34822 inv=195608
[DSB @ 11800000 calls] bc=12 isBypassOn=false| real=9017962 virt=347880 notrack=2434157 | touchRes=177290(eff=32859,ineff=144431) resetRes=5096(ineff=2854,eff=2242) | bc++=147285 bc--=35101 inv=202129
[DSB @ 11900000 calls] bc=12 isBypassOn=false| real=9017965 virt=360249 notrack=2521785 | touchRes=181894(eff=32861,ineff=149033) resetRes=5437(ineff=2854,eff=2583) | bc++=151887 bc--=35444 inv=208661
[DSB @ 12000000 calls] bc=12 isBypassOn=false| real=9017969 virt=372765 notrack=2609265 | touchRes=186674(eff=32863,ineff=153811) resetRes=5741(ineff=2854,eff=2887) | bc++=156665 bc--=35750 inv=215152
Exiting @ tick 26660909767000 because a thread reached the max instruction count
