warn: The `get_runtime_isa` function is deprecated. Please migrate away from using this function.
warn: The se.py script is deprecated. It will be removed in future releases of  gem5.
warn: The `get_runtime_isa` function is deprecated. Please migrate away from using this function.
Global frequency set at 1000000000000 ticks per second
src/base/statistics.hh:279: warn: One of the stats is a legacy stat. Legacy stat is a stat that does not belong to any statistics::Group. Legacy stat is deprecated.
src/base/remote_gdb.cc:418: warn: Sockets disabled, not accepting gdb connections
src/sim/process.cc:396: warn: Checkpoints for pipes, device drivers and sockets do not work.
gem5 Simulator System.  https://www.gem5.org
gem5 is copyrighted software; use the --copyright option for details.

gem5 version 23.0.0.1
gem5 compiled Apr  6 2026 01:50:35
gem5 started Apr  6 2026 15:46:01
gem5 executing on b49ce2a326be, pid 242592
command line: /opt/gem5/build/X86/gem5.opt --outdir=/workspace/results_l3/2MB/policy1Config3/omnetpp /workspace/configs/run_spec_l3.py --rp-type=DSBRP --l3-size=2MB --l3-assoc=16 --cpu-type=DerivO3CPU --cmd=./omnetpp_s_base.gem5-x86 '--options=-c General -r 0' --mem-size=8GB --maxinst=250000000 --caches --l2cache --l1d_size=32kB --l1i_size=32kB --l1d_assoc=8 --l1i_assoc=8 --l2_size=256kB --l2_assoc=8 --checkpoint-restore=1 --checkpoint-dir=/workspace/checkpoints/omnetpp/m5out --restore-with-cpu=AtomicSimpleCPU --standard-switch=1 --warmup-insts=50000000 --dsb-enable-bypass=true --dsb-enable-aging=true --dsb-bypass-counter=3 --dsb-virtual-bypass-counter=3 --dsb-random-promotion=4 --dsb-minimum-bypass-counter=12

info: Standard input is not a terminal, disabling listeners.
Replacement policy: DSBRP
L1I size: 32kB, assoc: 8
L1D size: 32kB, assoc: 8
L2 size: 256kB, assoc: 8
L3 size: 2MB, L3 assoc: 16
Switch at instruction count:1
src/sim/simulate.cc:194: info: Entering event queue @ 27633443439000.  Starting simulation...
src/sim/power_state.cc:105: warn: PowerState: Already in the requested power state, request ignored
Switched CPUS @ tick 27633443440000
switching cpus
Switch at instruction count:50000000
src/sim/simulate.cc:194: info: Entering event queue @ 27633443440000.  Starting simulation...
[DSB @ 100000 calls] bc=12 isBypassOn=false| real=316 virt=12350 notrack=87333 | touchRes=10268(eff=125,ineff=10143) resetRes=147(ineff=86,eff=61) | bc++=10229 bc--=186 inv=3
[DSB @ 200000 calls] bc=12 isBypassOn=false| real=316 virt=24682 notrack=175001 | touchRes=20725(eff=125,ineff=20600) resetRes=246(ineff=86,eff=160) | bc++=20686 bc--=285 inv=7
[DSB @ 300000 calls] bc=12 isBypassOn=false| real=316 virt=37313 notrack=262370 | touchRes=31419(eff=125,ineff=31294) resetRes=349(ineff=86,eff=263) | bc++=31380 bc--=388 inv=23
[DSB @ 400000 calls] bc=12 isBypassOn=false| real=316 virt=50029 notrack=349654 | touchRes=42103(eff=125,ineff=41978) resetRes=467(ineff=86,eff=381) | bc++=42064 bc--=506 inv=54
src/sim/simulate.cc:194: info: Entering event queue @ 27784027994500.  Starting simulation...
Switching CPUS @ tick 27784027994500
Simulation ends instruction count:250000000
switching cpus
**** REAL SIMULATION ****
src/sim/simulate.cc:194: info: Entering event queue @ 27784028358250.  Starting simulation...
[DSB @ 500000 calls] bc=12 isBypassOn=false| real=316 virt=62467 notrack=437216 | touchRes=52667(eff=125,ineff=52542) resetRes=587(ineff=86,eff=501) | bc++=52628 bc--=626 inv=111
[DSB @ 600000 calls] bc=12 isBypassOn=false| real=316 virt=74817 notrack=524866 | touchRes=63131(eff=125,ineff=63006) resetRes=728(ineff=86,eff=642) | bc++=63092 bc--=767 inv=181
[DSB @ 700000 calls] bc=12 isBypassOn=false| real=316 virt=87228 notrack=612455 | touchRes=73658(eff=125,ineff=73533) resetRes=857(ineff=86,eff=771) | bc++=73619 bc--=896 inv=255
[DSB @ 800000 calls] bc=12 isBypassOn=false| real=317 virt=99828 notrack=699854 | touchRes=84205(eff=125,ineff=84080) resetRes=1027(ineff=86,eff=941) | bc++=84166 bc--=1066 inv=347
[DSB @ 900000 calls] bc=12 isBypassOn=false| real=317 virt=112282 notrack=787400 | touchRes=94697(eff=125,ineff=94572) resetRes=1212(ineff=86,eff=1126) | bc++=94658 bc--=1251 inv=462
[DSB @ 1000000 calls] bc=12 isBypassOn=false| real=317 virt=124815 notrack=874867 | touchRes=105217(eff=125,ineff=105092) resetRes=1390(ineff=86,eff=1304) | bc++=105178 bc--=1429 inv=575
[DSB @ 1100000 calls] bc=12 isBypassOn=false| real=317 virt=137160 notrack=962522 | touchRes=115615(eff=125,ineff=115490) resetRes=1553(ineff=86,eff=1467) | bc++=115576 bc--=1592 inv=682
[DSB @ 1200000 calls] bc=12 isBypassOn=false| real=317 virt=149604 notrack=1050078 | touchRes=126135(eff=125,ineff=126010) resetRes=1729(ineff=86,eff=1643) | bc++=126096 bc--=1768 inv=786
[DSB @ 1300000 calls] bc=12 isBypassOn=false| real=318 virt=162031 notrack=1137650 | touchRes=136535(eff=125,ineff=136410) resetRes=1922(ineff=86,eff=1836) | bc++=136496 bc--=1961 inv=891
[DSB @ 1400000 calls] bc=12 isBypassOn=false| real=318 virt=174309 notrack=1225372 | touchRes=146852(eff=125,ineff=146727) resetRes=2126(ineff=86,eff=2040) | bc++=146813 bc--=2165 inv=997
[DSB @ 1500000 calls] bc=12 isBypassOn=false| real=318 virt=186734 notrack=1312947 | touchRes=157231(eff=125,ineff=157106) resetRes=2319(ineff=86,eff=2233) | bc++=157192 bc--=2358 inv=1103
[DSB @ 1600000 calls] bc=12 isBypassOn=false| real=319 virt=199082 notrack=1400598 | touchRes=167621(eff=125,ineff=167496) resetRes=2510(ineff=86,eff=2424) | bc++=167582 bc--=2549 inv=1211
[DSB @ 1700000 calls] bc=12 isBypassOn=false| real=319 virt=211442 notrack=1488238 | touchRes=177951(eff=125,ineff=177826) resetRes=2704(ineff=86,eff=2618) | bc++=177912 bc--=2743 inv=1318
[DSB @ 1800000 calls] bc=12 isBypassOn=false| real=321 virt=223855 notrack=1575823 | touchRes=188368(eff=125,ineff=188243) resetRes=2920(ineff=86,eff=2834) | bc++=188329 bc--=2959 inv=1431
[DSB @ 1900000 calls] bc=12 isBypassOn=false| real=321 virt=236351 notrack=1663327 | touchRes=198830(eff=125,ineff=198705) resetRes=3125(ineff=86,eff=3039) | bc++=198791 bc--=3164 inv=1546
[DSB @ 2000000 calls] bc=12 isBypassOn=false| real=324 virt=248937 notrack=1750738 | touchRes=209306(eff=125,ineff=209181) resetRes=3301(ineff=86,eff=3215) | bc++=209267 bc--=3340 inv=1665
[DSB @ 2100000 calls] bc=12 isBypassOn=false| real=325 virt=261424 notrack=1838250 | touchRes=219773(eff=125,ineff=219648) resetRes=3467(ineff=86,eff=3381) | bc++=219734 bc--=3506 inv=1766
[DSB @ 2200000 calls] bc=12 isBypassOn=false| real=325 virt=273884 notrack=1925790 | touchRes=230270(eff=125,ineff=230145) resetRes=3656(ineff=86,eff=3570) | bc++=230231 bc--=3695 inv=1866
[DSB @ 2300000 calls] bc=12 isBypassOn=false| real=326 virt=286346 notrack=2013327 | touchRes=240769(eff=125,ineff=240644) resetRes=3858(ineff=86,eff=3772) | bc++=240730 bc--=3897 inv=1978
[DSB @ 2400000 calls] bc=12 isBypassOn=false| real=326 virt=298929 notrack=2100744 | touchRes=251398(eff=125,ineff=251273) resetRes=4016(ineff=86,eff=3930) | bc++=251359 bc--=4055 inv=2074
[DSB @ 2500000 calls] bc=12 isBypassOn=false| real=328 virt=311602 notrack=2188069 | touchRes=262012(eff=126,ineff=261886) resetRes=4136(ineff=86,eff=4050) | bc++=261972 bc--=4176 inv=2166
[DSB @ 2600000 calls] bc=12 isBypassOn=false| real=328 virt=324023 notrack=2275648 | touchRes=272525(eff=126,ineff=272399) resetRes=4281(ineff=86,eff=4195) | bc++=272485 bc--=4321 inv=2239
[DSB @ 2700000 calls] bc=12 isBypassOn=false| real=332 virt=336515 notrack=2363152 | touchRes=283106(eff=126,ineff=282980) resetRes=4444(ineff=86,eff=4358) | bc++=283066 bc--=4484 inv=2348
Exiting @ tick 28028681308000 because a thread reached the max instruction count
