warn: The `get_runtime_isa` function is deprecated. Please migrate away from using this function.
warn: The se.py script is deprecated. It will be removed in future releases of  gem5.
warn: The `get_runtime_isa` function is deprecated. Please migrate away from using this function.
Global frequency set at 1000000000000 ticks per second
src/base/statistics.hh:279: warn: One of the stats is a legacy stat. Legacy stat is a stat that does not belong to any statistics::Group. Legacy stat is deprecated.
src/base/remote_gdb.cc:418: warn: Sockets disabled, not accepting gdb connections
src/sim/process.cc:396: warn: Checkpoints for pipes, device drivers and sockets do not work.
gem5 Simulator System.  https://www.gem5.org
gem5 is copyrighted software; use the --copyright option for details.

gem5 version 23.0.0.1
gem5 compiled Apr  6 2026 01:50:35
gem5 started Apr  6 2026 14:32:54
gem5 executing on b49ce2a326be, pid 229270
command line: /opt/gem5/build/X86/gem5.opt --outdir=/workspace/results_l3/2MB/policy1Config2/mcf /workspace/configs/run_spec_l3.py --rp-type=DSBRP --l3-size=2MB --l3-assoc=16 --cpu-type=DerivO3CPU --cmd=./mcf_s_base.gem5-x86 --options=inp.in --mem-size=8GB --maxinst=250000000 --caches --l2cache --l1d_size=32kB --l1i_size=32kB --l1d_assoc=8 --l1i_assoc=8 --l2_size=256kB --l2_assoc=8 --checkpoint-restore=1 --checkpoint-dir=/workspace/checkpoints/mcf/m5out --restore-with-cpu=AtomicSimpleCPU --standard-switch=1 --warmup-insts=50000000 --dsb-enable-bypass=true --dsb-enable-aging=true --dsb-bypass-counter=6 --dsb-virtual-bypass-counter=3 --dsb-random-promotion=0 --dsb-minimum-bypass-counter=12

info: Standard input is not a terminal, disabling listeners.
Replacement policy: DSBRP
L1I size: 32kB, assoc: 8
L1D size: 32kB, assoc: 8
L2 size: 256kB, assoc: 8
L3 size: 2MB, L3 assoc: 16
Switch at instruction count:1
src/sim/simulate.cc:194: info: Entering event queue @ 24065090964500.  Starting simulation...
src/sim/simulate.cc:194: info: Entering event queue @ 24065090965500.  Starting simulation...
src/sim/power_state.cc:105: warn: PowerState: Already in the requested power state, request ignored
Switched CPUS @ tick 24065090965500
switching cpus
Switch at instruction count:50000000
src/sim/simulate.cc:194: info: Entering event queue @ 24065090966000.  Starting simulation...
[DSB @ 100000 calls] bc=12 isBypassOn=false| real=32 virt=12456 notrack=87511 | touchRes=11038(eff=18,ineff=11020) resetRes=103(ineff=9,eff=94) | bc++=11029 bc--=112 inv=8
[DSB @ 200000 calls] bc=12 isBypassOn=false| real=33 virt=24942 notrack=175024 | touchRes=22392(eff=18,ineff=22374) resetRes=241(ineff=9,eff=232) | bc++=22383 bc--=250 inv=61
[DSB @ 300000 calls] bc=12 isBypassOn=false| real=33 virt=37458 notrack=262508 | touchRes=33497(eff=18,ineff=33479) resetRes=391(ineff=9,eff=382) | bc++=33488 bc--=400 inv=173
src/sim/simulate.cc:194: info: Entering event queue @ 24215666174500.  Starting simulation...
Switching CPUS @ tick 24215666174500
Simulation ends instruction count:250000000
switching cpus
**** REAL SIMULATION ****
src/sim/simulate.cc:194: info: Entering event queue @ 24215666372000.  Starting simulation...
[DSB @ 400000 calls] bc=12 isBypassOn=false| real=34 virt=49741 notrack=350224 | touchRes=44516(eff=18,ineff=44498) resetRes=557(ineff=9,eff=548) | bc++=44507 bc--=566 inv=325
[DSB @ 500000 calls] bc=12 isBypassOn=false| real=34 virt=62169 notrack=437796 | touchRes=55812(eff=18,ineff=55794) resetRes=702(ineff=9,eff=693) | bc++=55803 bc--=711 inv=458
[DSB @ 600000 calls] bc=12 isBypassOn=false| real=34 virt=74662 notrack=525303 | touchRes=66800(eff=18,ineff=66782) resetRes=855(ineff=9,eff=846) | bc++=66791 bc--=864 inv=627
[DSB @ 700000 calls] bc=12 isBypassOn=false| real=34 virt=87057 notrack=612908 | touchRes=77867(eff=18,ineff=77849) resetRes=1030(ineff=9,eff=1021) | bc++=77858 bc--=1039 inv=804
[DSB @ 800000 calls] bc=12 isBypassOn=true| real=34 virt=99299 notrack=700666 | touchRes=88944(eff=18,ineff=88926) resetRes=1185(ineff=9,eff=1176) | bc++=88935 bc--=1194 inv=934
[DSB @ 900000 calls] bc=12 isBypassOn=false| real=34 virt=111766 notrack=788199 | touchRes=100072(eff=18,ineff=100054) resetRes=1324(ineff=9,eff=1315) | bc++=100063 bc--=1333 inv=1113
[DSB @ 1000000 calls] bc=12 isBypassOn=false| real=34 virt=124138 notrack=875827 | touchRes=111114(eff=18,ineff=111096) resetRes=1487(ineff=9,eff=1478) | bc++=111105 bc--=1496 inv=1287
[DSB @ 1100000 calls] bc=12 isBypassOn=false| real=35 virt=136706 notrack=963258 | touchRes=122471(eff=18,ineff=122453) resetRes=1653(ineff=9,eff=1644) | bc++=122462 bc--=1662 inv=1456
[DSB @ 1200000 calls] bc=12 isBypassOn=false| real=36 virt=149314 notrack=1050649 | touchRes=133465(eff=18,ineff=133447) resetRes=1825(ineff=9,eff=1816) | bc++=133456 bc--=1834 inv=1626
[DSB @ 1300000 calls] bc=12 isBypassOn=false| real=36 virt=161836 notrack=1138127 | touchRes=144814(eff=18,ineff=144796) resetRes=1955(ineff=9,eff=1946) | bc++=144805 bc--=1964 inv=1773
[DSB @ 1400000 calls] bc=12 isBypassOn=false| real=37 virt=174298 notrack=1225664 | touchRes=156052(eff=19,ineff=156033) resetRes=2134(ineff=9,eff=2125) | bc++=156042 bc--=2144 inv=1917
[DSB @ 1500000 calls] bc=12 isBypassOn=false| real=39 virt=186686 notrack=1313274 | touchRes=167064(eff=20,ineff=167044) resetRes=2291(ineff=10,eff=2281) | bc++=167054 bc--=2301 inv=2085
[DSB @ 1600000 calls] bc=12 isBypassOn=false| real=39 virt=199268 notrack=1400692 | touchRes=178300(eff=20,ineff=178280) resetRes=2463(ineff=10,eff=2453) | bc++=178290 bc--=2473 inv=2247
[DSB @ 1700000 calls] bc=12 isBypassOn=false| real=39 virt=211856 notrack=1488104 | touchRes=189676(eff=20,ineff=189656) resetRes=2633(ineff=10,eff=2623) | bc++=189666 bc--=2643 inv=2411
[DSB @ 1800000 calls] bc=12 isBypassOn=false| real=39 virt=224244 notrack=1575716 | touchRes=200759(eff=20,ineff=200739) resetRes=2783(ineff=10,eff=2773) | bc++=200749 bc--=2793 inv=2574
Exiting @ tick 24409769458500 because a thread reached the max instruction count
