warn: The `get_runtime_isa` function is deprecated. Please migrate away from using this function.
warn: The se.py script is deprecated. It will be removed in future releases of  gem5.
warn: The `get_runtime_isa` function is deprecated. Please migrate away from using this function.
Global frequency set at 1000000000000 ticks per second
src/base/statistics.hh:279: warn: One of the stats is a legacy stat. Legacy stat is a stat that does not belong to any statistics::Group. Legacy stat is deprecated.
src/base/remote_gdb.cc:418: warn: Sockets disabled, not accepting gdb connections
src/sim/process.cc:396: warn: Checkpoints for pipes, device drivers and sockets do not work.
gem5 Simulator System.  https://www.gem5.org
gem5 is copyrighted software; use the --copyright option for details.

gem5 version 23.0.0.1
gem5 compiled Apr  6 2026 01:50:35
gem5 started Apr  6 2026 02:54:04
gem5 executing on b49ce2a326be, pid 105665
command line: /opt/gem5/build/X86/gem5.opt --outdir=/workspace/results_l3/1MB/policy0Config1/cam4 /workspace/configs/run_spec_l3.py --rp-type=DSBRP --l3-size=1MB --l3-assoc=16 --cpu-type=DerivO3CPU --cmd=./cam4_s_base.gem5-x86 --options= --mem-size=8GB --maxinst=250000000 --caches --l2cache --l1d_size=32kB --l1i_size=32kB --l1d_assoc=8 --l1i_assoc=8 --l2_size=256kB --l2_assoc=8 --checkpoint-restore=1 --checkpoint-dir=/workspace/checkpoints/cam4/m5out --restore-with-cpu=AtomicSimpleCPU --standard-switch=1 --warmup-insts=50000000 --dsb-enable-bypass=true --dsb-enable-aging=false --dsb-bypass-counter=6 --dsb-virtual-bypass-counter=4 --dsb-random-promotion=0 --dsb-minimum-bypass-counter=8

info: Standard input is not a terminal, disabling listeners.
Replacement policy: DSBRP
L1I size: 32kB, assoc: 8
L1D size: 32kB, assoc: 8
L2 size: 256kB, assoc: 8
L3 size: 1MB, L3 assoc: 16
Switch at instruction count:1
src/sim/simulate.cc:194: info: Entering event queue @ 25337984014000.  Starting simulation...
src/sim/power_state.cc:105: warn: PowerState: Already in the requested power state, request ignored
Switched CPUS @ tick 25337984015500
switching cpus
Switch at instruction count:50000000
src/sim/simulate.cc:194: info: Entering event queue @ 25337984015500.  Starting simulation...
[DSB @ 100000 calls] bc=0 isBypassOn=true| real=44327 virt=3424 notrack=52248 | touchRes=5118(eff=4279,ineff=839) resetRes=1185(ineff=1072,eff=113) | bc++=1911 bc--=4392 inv=8162
[DSB @ 200000 calls] bc=0 isBypassOn=true| real=143941 virt=3445 notrack=52613 | touchRes=5845(eff=5005,ineff=840) resetRes=1227(ineff=1114,eff=113) | bc++=1954 bc--=5118 inv=8420
[DSB @ 300000 calls] bc=0 isBypassOn=true| real=243941 virt=3445 notrack=52613 | touchRes=5845(eff=5005,ineff=840) resetRes=1227(ineff=1114,eff=113) | bc++=1954 bc--=5118 inv=8420
[DSB @ 400000 calls] bc=0 isBypassOn=true| real=343941 virt=3445 notrack=52613 | touchRes=5845(eff=5005,ineff=840) resetRes=1227(ineff=1114,eff=113) | bc++=1954 bc--=5118 inv=8420
[DSB @ 500000 calls] bc=0 isBypassOn=true| real=443941 virt=3445 notrack=52613 | touchRes=5845(eff=5005,ineff=840) resetRes=1227(ineff=1114,eff=113) | bc++=1954 bc--=5118 inv=8420
[DSB @ 600000 calls] bc=0 isBypassOn=true| real=543941 virt=3445 notrack=52613 | touchRes=5845(eff=5005,ineff=840) resetRes=1227(ineff=1114,eff=113) | bc++=1954 bc--=5118 inv=8420
[DSB @ 700000 calls] bc=0 isBypassOn=true| real=643941 virt=3445 notrack=52613 | touchRes=5845(eff=5005,ineff=840) resetRes=1227(ineff=1114,eff=113) | bc++=1954 bc--=5118 inv=8420
[DSB @ 800000 calls] bc=0 isBypassOn=true| real=743941 virt=3445 notrack=52613 | touchRes=5845(eff=5005,ineff=840) resetRes=1227(ineff=1114,eff=113) | bc++=1954 bc--=5118 inv=8420
[DSB @ 900000 calls] bc=0 isBypassOn=true| real=843941 virt=3445 notrack=52613 | touchRes=5845(eff=5005,ineff=840) resetRes=1227(ineff=1114,eff=113) | bc++=1954 bc--=5118 inv=8420
[DSB @ 1000000 calls] bc=7 isBypassOn=true| real=922445 virt=4804 notrack=72750 | touchRes=6750(eff=5885,ineff=865) resetRes=1633(ineff=1498,eff=135) | bc++=2363 bc--=6020 inv=11408
src/sim/simulate.cc:194: info: Entering event queue @ 25490173237500.  Starting simulation...
Switching CPUS @ tick 25490173237500
Simulation ends instruction count:250000000
switching cpus
**** REAL SIMULATION ****
src/sim/simulate.cc:194: info: Entering event queue @ 25490173493750.  Starting simulation...
[DSB @ 1100000 calls] bc=0 isBypassOn=true| real=959140 virt=8767 notrack=132092 | touchRes=11099(eff=9868,ineff=1231) resetRes=3827(ineff=3408,eff=419) | bc++=4639 bc--=10287 inv=21818
[DSB @ 1200000 calls] bc=0 isBypassOn=true| real=988871 virt=13125 notrack=198003 | touchRes=13636(eff=12226,ineff=1410) resetRes=4324(ineff=3798,eff=526) | bc++=5208 bc--=12752 inv=29243
[DSB @ 1300000 calls] bc=0 isBypassOn=true| real=1088871 virt=13125 notrack=198003 | touchRes=13638(eff=12228,ineff=1410) resetRes=4324(ineff=3798,eff=526) | bc++=5208 bc--=12754 inv=29243
[DSB @ 1400000 calls] bc=0 isBypassOn=true| real=1188871 virt=13125 notrack=198003 | touchRes=13646(eff=12236,ineff=1410) resetRes=4324(ineff=3798,eff=526) | bc++=5208 bc--=12762 inv=29243
[DSB @ 1500000 calls] bc=0 isBypassOn=true| real=1288871 virt=13125 notrack=198003 | touchRes=13660(eff=12250,ineff=1410) resetRes=4324(ineff=3798,eff=526) | bc++=5208 bc--=12776 inv=29243
[DSB @ 1600000 calls] bc=0 isBypassOn=true| real=1388871 virt=13125 notrack=198003 | touchRes=13666(eff=12256,ineff=1410) resetRes=4324(ineff=3798,eff=526) | bc++=5208 bc--=12782 inv=29243
[DSB @ 1700000 calls] bc=0 isBypassOn=true| real=1488871 virt=13125 notrack=198003 | touchRes=13666(eff=12256,ineff=1410) resetRes=4324(ineff=3798,eff=526) | bc++=5208 bc--=12782 inv=29243
[DSB @ 1800000 calls] bc=0 isBypassOn=true| real=1588871 virt=13125 notrack=198003 | touchRes=13667(eff=12257,ineff=1410) resetRes=4324(ineff=3798,eff=526) | bc++=5208 bc--=12783 inv=29243
[DSB @ 1900000 calls] bc=0 isBypassOn=true| real=1688871 virt=13125 notrack=198003 | touchRes=13667(eff=12257,ineff=1410) resetRes=4324(ineff=3798,eff=526) | bc++=5208 bc--=12783 inv=29243
[DSB @ 2000000 calls] bc=0 isBypassOn=true| real=1788871 virt=13125 notrack=198003 | touchRes=13667(eff=12257,ineff=1410) resetRes=4324(ineff=3798,eff=526) | bc++=5208 bc--=12783 inv=29243
[DSB @ 2100000 calls] bc=1 isBypassOn=true| real=1827822 virt=16890 notrack=255287 | touchRes=14454(eff=12970,ineff=1484) resetRes=4655(ineff=4073,eff=582) | bc++=5557 bc--=13552 inv=34605
[DSB @ 2200000 calls] bc=8 isBypassOn=false| real=1863201 virt=20968 notrack=315830 | touchRes=19660(eff=17885,ineff=1775) resetRes=7419(ineff=6612,eff=807) | bc++=8387 bc--=18692 inv=44859
[DSB @ 2300000 calls] bc=8 isBypassOn=false| real=1872862 virt=26546 notrack=400591 | touchRes=21032(eff=19209,ineff=1823) resetRes=7649(ineff=6815,eff=834) | bc++=8638 bc--=20043 inv=51537
[DSB @ 2400000 calls] bc=8 isBypassOn=false| real=1872862 virt=32852 notrack=494285 | touchRes=21032(eff=19209,ineff=1823) resetRes=7649(ineff=6815,eff=834) | bc++=8638 bc--=20043 inv=57477
[DSB @ 2500000 calls] bc=8 isBypassOn=false| real=1872862 virt=39098 notrack=588039 | touchRes=21032(eff=19209,ineff=1823) resetRes=7649(ineff=6815,eff=834) | bc++=8638 bc--=20043 inv=63309
[DSB @ 2600000 calls] bc=8 isBypassOn=false| real=1872862 virt=45353 notrack=681784 | touchRes=21032(eff=19209,ineff=1823) resetRes=7649(ineff=6815,eff=834) | bc++=8638 bc--=20043 inv=69178
[DSB @ 2700000 calls] bc=8 isBypassOn=false| real=1872862 virt=51523 notrack=775614 | touchRes=21032(eff=19209,ineff=1823) resetRes=7649(ineff=6815,eff=834) | bc++=8638 bc--=20043 inv=74982
[DSB @ 2800000 calls] bc=8 isBypassOn=false| real=1872862 virt=57884 notrack=869253 | touchRes=21032(eff=19209,ineff=1823) resetRes=7649(ineff=6815,eff=834) | bc++=8638 bc--=20043 inv=80960
[DSB @ 2900000 calls] bc=8 isBypassOn=false| real=1872862 virt=64119 notrack=963018 | touchRes=21032(eff=19209,ineff=1823) resetRes=7649(ineff=6815,eff=834) | bc++=8638 bc--=20043 inv=86810
[DSB @ 3000000 calls] bc=8 isBypassOn=false| real=1872862 virt=70315 notrack=1056822 | touchRes=21032(eff=19209,ineff=1823) resetRes=7649(ineff=6815,eff=834) | bc++=8638 bc--=20043 inv=92601
[DSB @ 3100000 calls] bc=0 isBypassOn=true| real=1883921 virt=75985 notrack=1140093 | touchRes=21817(eff=19984,ineff=1833) resetRes=7747(ineff=6887,eff=860) | bc++=8720 bc--=20844 inv=98234
Exiting @ tick 25669691995500 because a thread reached the max instruction count
