warn: The `get_runtime_isa` function is deprecated. Please migrate away from using this function.
warn: The se.py script is deprecated. It will be removed in future releases of  gem5.
warn: The `get_runtime_isa` function is deprecated. Please migrate away from using this function.
Global frequency set at 1000000000000 ticks per second
src/base/statistics.hh:279: warn: One of the stats is a legacy stat. Legacy stat is a stat that does not belong to any statistics::Group. Legacy stat is deprecated.
src/base/remote_gdb.cc:418: warn: Sockets disabled, not accepting gdb connections
src/sim/process.cc:396: warn: Checkpoints for pipes, device drivers and sockets do not work.
gem5 Simulator System.  https://www.gem5.org
gem5 is copyrighted software; use the --copyright option for details.

gem5 version 23.0.0.1
gem5 compiled Apr  6 2026 01:50:35
gem5 started Apr  6 2026 10:38:26
gem5 executing on b49ce2a326be, pid 185908
command line: /opt/gem5/build/X86/gem5.opt --outdir=/workspace/results_l3/2MB/policy0Config1/pop2 /workspace/configs/run_spec_l3.py --rp-type=DSBRP --l3-size=2MB --l3-assoc=16 --cpu-type=DerivO3CPU --cmd=./speed_pop2_base.gem5-x86 --options= --mem-size=8GB --maxinst=250000000 --caches --l2cache --l1d_size=32kB --l1i_size=32kB --l1d_assoc=8 --l1i_assoc=8 --l2_size=256kB --l2_assoc=8 --checkpoint-restore=1 --checkpoint-dir=/workspace/checkpoints/pop2/m5out --restore-with-cpu=AtomicSimpleCPU --standard-switch=1 --warmup-insts=50000000 --dsb-enable-bypass=true --dsb-enable-aging=false --dsb-bypass-counter=6 --dsb-virtual-bypass-counter=4 --dsb-random-promotion=0 --dsb-minimum-bypass-counter=8

info: Standard input is not a terminal, disabling listeners.
Replacement policy: DSBRP
L1I size: 32kB, assoc: 8
L1D size: 32kB, assoc: 8
L2 size: 256kB, assoc: 8
L3 size: 2MB, L3 assoc: 16
Switch at instruction count:1
src/sim/simulate.cc:194: info: Entering event queue @ 28375057083500.  Starting simulation...
src/sim/simulate.cc:194: info: Entering event queue @ 28375057085000.  Starting simulation...
src/sim/power_state.cc:105: warn: PowerState: Already in the requested power state, request ignored
Switched CPUS @ tick 28375057085000
switching cpus
Switch at instruction count:50000000
src/sim/simulate.cc:194: info: Entering event queue @ 28375057086000.  Starting simulation...
[DSB @ 100000 calls] bc=8 isBypassOn=false| real=24102 virt=4732 notrack=71165 | touchRes=6934(eff=4655,ineff=2279) resetRes=2327(ineff=2120,eff=207) | bc++=4399 bc--=4862 inv=7395
[DSB @ 200000 calls] bc=8 isBypassOn=false| real=31799 virt=10467 notrack=157733 | touchRes=10750(eff=6425,ineff=4325) resetRes=4083(ineff=3338,eff=745) | bc++=7663 bc--=7170 inv=12767
src/sim/simulate.cc:194: info: Entering event queue @ 28518821148500.  Starting simulation...
Switching CPUS @ tick 28518821148500
Simulation ends instruction count:250000000
switching cpus
**** REAL SIMULATION ****
src/sim/simulate.cc:194: info: Entering event queue @ 28518821364500.  Starting simulation...
[DSB @ 300000 calls] bc=8 isBypassOn=false| real=37760 virt=16273 notrack=245966 | touchRes=14381(eff=7905,ineff=6476) resetRes=5713(ineff=4460,eff=1253) | bc++=10936 bc--=9158 inv=17222
[DSB @ 400000 calls] bc=8 isBypassOn=true| real=44686 virt=22227 notrack=333086 | touchRes=18469(eff=9665,ineff=8804) resetRes=7525(ineff=5733,eff=1792) | bc++=14537 bc--=11457 inv=22343
[DSB @ 500000 calls] bc=1 isBypassOn=true| real=89006 virt=25669 notrack=385324 | touchRes=26737(eff=17500,ineff=9237) resetRes=9910(ineff=7865,eff=2045) | bc++=17102 bc--=19545 inv=32998
[DSB @ 600000 calls] bc=1 isBypassOn=true| real=142708 virt=28592 notrack=428699 | touchRes=33516(eff=23905,ineff=9611) resetRes=11502(ineff=9258,eff=2244) | bc++=18869 bc--=26149 inv=44778
[DSB @ 700000 calls] bc=3 isBypassOn=true| real=192542 virt=31746 notrack=475711 | touchRes=42010(eff=32076,ineff=9934) resetRes=15107(ineff=12643,eff=2464) | bc++=22577 bc--=34540 inv=58284
[DSB @ 800000 calls] bc=8 isBypassOn=false| real=254740 virt=34073 notrack=511186 | touchRes=48419(eff=38392,ineff=10027) resetRes=16979(ineff=14360,eff=2619) | bc++=24387 bc--=41011 inv=72827
[DSB @ 900000 calls] bc=0 isBypassOn=true| real=325808 virt=35843 notrack=538348 | touchRes=53900(eff=43798,ineff=10102) resetRes=17192(ineff=14522,eff=2670) | bc++=24624 bc--=46468 inv=82197
[DSB @ 1000000 calls] bc=8 isBypassOn=false| real=403729 virt=37219 notrack=559051 | touchRes=59003(eff=48848,ineff=10155) resetRes=17884(ineff=15087,eff=2797) | bc++=25242 bc--=51645 inv=89213
[DSB @ 1100000 calls] bc=0 isBypassOn=true| real=485803 virt=38349 notrack=575847 | touchRes=63490(eff=53278,ineff=10212) resetRes=18673(ineff=15805,eff=2868) | bc++=26017 bc--=56146 inv=96232
[DSB @ 1200000 calls] bc=8 isBypassOn=false| real=528649 virt=42014 notrack=629336 | touchRes=72511(eff=61294,ineff=11217) resetRes=22055(ineff=18910,eff=3145) | bc++=30127 bc--=64439 inv=108177
[DSB @ 1300000 calls] bc=8 isBypassOn=false| real=532156 virt=47988 notrack=719855 | touchRes=75718(eff=62306,ineff=13412) resetRes=23286(ineff=19618,eff=3668) | bc++=33030 bc--=65974 inv=112182
[DSB @ 1400000 calls] bc=3 isBypassOn=true| real=535182 virt=54215 notrack=810602 | touchRes=78943(eff=63089,ineff=15854) resetRes=24434(ineff=20226,eff=4208) | bc++=36080 bc--=67297 inv=116028
[DSB @ 1500000 calls] bc=4 isBypassOn=true| real=548060 virt=59554 notrack=892385 | touchRes=83633(eff=65858,ineff=17775) resetRes=26675(ineff=22020,eff=4655) | bc++=39795 bc--=70513 inv=121665
[DSB @ 1600000 calls] bc=7 isBypassOn=true| real=608376 virt=61981 notrack=929642 | touchRes=90198(eff=72164,ineff=18034) resetRes=27806(ineff=23010,eff=4796) | bc++=41044 bc--=76960 inv=132389
[DSB @ 1700000 calls] bc=0 isBypassOn=true| real=671733 virt=64301 notrack=963965 | touchRes=98215(eff=79961,ineff=18254) resetRes=29993(ineff=24956,eff=5037) | bc++=43210 bc--=84998 inv=144124
[DSB @ 1800000 calls] bc=1 isBypassOn=true| real=726784 virt=67072 notrack=1006143 | touchRes=105806(eff=87396,ineff=18410) resetRes=31992(ineff=26762,eff=5230) | bc++=45172 bc--=92626 inv=158140
Exiting @ tick 28694579766000 because a thread reached the max instruction count
