warn: The `get_runtime_isa` function is deprecated. Please migrate away from using this function.
warn: The se.py script is deprecated. It will be removed in future releases of  gem5.
warn: The `get_runtime_isa` function is deprecated. Please migrate away from using this function.
Global frequency set at 1000000000000 ticks per second
src/base/statistics.hh:279: warn: One of the stats is a legacy stat. Legacy stat is a stat that does not belong to any statistics::Group. Legacy stat is deprecated.
src/base/remote_gdb.cc:418: warn: Sockets disabled, not accepting gdb connections
src/sim/process.cc:396: warn: Checkpoints for pipes, device drivers and sockets do not work.
gem5 Simulator System.  https://www.gem5.org
gem5 is copyrighted software; use the --copyright option for details.

gem5 version 23.0.0.1
gem5 compiled Apr  6 2026 01:50:35
gem5 started Apr  6 2026 08:59:24
gem5 executing on b49ce2a326be, pid 168260
command line: /opt/gem5/build/X86/gem5.opt --outdir=/workspace/results_l3/1MB/policy1Config3/lbm /workspace/configs/run_spec_l3.py --rp-type=DSBRP --l3-size=1MB --l3-assoc=16 --cpu-type=DerivO3CPU --cmd=./lbm_s_base.gem5-x86 '--options=2000 reference.dat 0 0 200_200_260_ldc.of' --mem-size=8GB --maxinst=250000000 --caches --l2cache --l1d_size=32kB --l1i_size=32kB --l1d_assoc=8 --l1i_assoc=8 --l2_size=256kB --l2_assoc=8 --checkpoint-restore=1 --checkpoint-dir=/workspace/checkpoints/lbm/m5out --restore-with-cpu=AtomicSimpleCPU --standard-switch=1 --warmup-insts=50000000 --dsb-enable-bypass=true --dsb-enable-aging=true --dsb-bypass-counter=3 --dsb-virtual-bypass-counter=3 --dsb-random-promotion=4 --dsb-minimum-bypass-counter=12

info: Standard input is not a terminal, disabling listeners.
Replacement policy: DSBRP
L1I size: 32kB, assoc: 8
L1D size: 32kB, assoc: 8
L2 size: 256kB, assoc: 8
L3 size: 1MB, L3 assoc: 16
Switch at instruction count:1
src/sim/simulate.cc:194: info: Entering event queue @ 25728322212500.  Starting simulation...
src/sim/simulate.cc:194: info: Entering event queue @ 25728322214000.  Starting simulation...
src/sim/power_state.cc:105: warn: PowerState: Already in the requested power state, request ignored
Switched CPUS @ tick 25728322214000
switching cpus
Switch at instruction count:50000000
src/sim/simulate.cc:194: info: Entering event queue @ 25728322215000.  Starting simulation...
[DSB @ 100000 calls] bc=12 isBypassOn=false| real=466 virt=12366 notrack=87167 | touchRes=7854(eff=121,ineff=7733) resetRes=149(ineff=149,eff=0) | bc++=7882 bc--=121 inv=0
[DSB @ 200000 calls] bc=12 isBypassOn=false| real=466 virt=24737 notrack=174796 | touchRes=16013(eff=121,ineff=15892) resetRes=149(ineff=149,eff=0) | bc++=16041 bc--=121 inv=0
[DSB @ 300000 calls] bc=12 isBypassOn=false| real=466 virt=37297 notrack=262236 | touchRes=24236(eff=121,ineff=24115) resetRes=149(ineff=149,eff=0) | bc++=24264 bc--=121 inv=0
[DSB @ 400000 calls] bc=12 isBypassOn=false| real=466 virt=50000 notrack=349533 | touchRes=32450(eff=121,ineff=32329) resetRes=149(ineff=149,eff=0) | bc++=32478 bc--=121 inv=0
[DSB @ 500000 calls] bc=12 isBypassOn=false| real=466 virt=62506 notrack=437027 | touchRes=40537(eff=121,ineff=40416) resetRes=149(ineff=149,eff=0) | bc++=40565 bc--=121 inv=0
[DSB @ 600000 calls] bc=12 isBypassOn=false| real=466 virt=74903 notrack=524630 | touchRes=48701(eff=121,ineff=48580) resetRes=149(ineff=149,eff=0) | bc++=48729 bc--=121 inv=0
[DSB @ 700000 calls] bc=12 isBypassOn=false| real=466 virt=87398 notrack=612135 | touchRes=56792(eff=121,ineff=56671) resetRes=149(ineff=149,eff=0) | bc++=56820 bc--=121 inv=0
[DSB @ 800000 calls] bc=12 isBypassOn=false| real=466 virt=100035 notrack=699498 | touchRes=64889(eff=121,ineff=64768) resetRes=149(ineff=149,eff=0) | bc++=64917 bc--=121 inv=0
[DSB @ 900000 calls] bc=12 isBypassOn=false| real=466 virt=112588 notrack=786945 | touchRes=73042(eff=121,ineff=72921) resetRes=149(ineff=149,eff=0) | bc++=73070 bc--=121 inv=0
[DSB @ 1000000 calls] bc=12 isBypassOn=false| real=466 virt=124942 notrack=874591 | touchRes=81144(eff=121,ineff=81023) resetRes=149(ineff=149,eff=0) | bc++=81172 bc--=121 inv=0
src/sim/simulate.cc:194: info: Entering event queue @ 25951433196500.  Starting simulation...
Switching CPUS @ tick 25951433196500
Simulation ends instruction count:250000000
switching cpus
**** REAL SIMULATION ****
src/sim/simulate.cc:194: info: Entering event queue @ 25951433351500.  Starting simulation...
[DSB @ 1100000 calls] bc=12 isBypassOn=false| real=466 virt=137580 notrack=961953 | touchRes=89347(eff=121,ineff=89226) resetRes=149(ineff=149,eff=0) | bc++=89375 bc--=121 inv=0
[DSB @ 1200000 calls] bc=12 isBypassOn=false| real=466 virt=149971 notrack=1049562 | touchRes=97484(eff=121,ineff=97363) resetRes=149(ineff=149,eff=0) | bc++=97512 bc--=121 inv=0
[DSB @ 1300000 calls] bc=12 isBypassOn=false| real=466 virt=162311 notrack=1137222 | touchRes=105582(eff=121,ineff=105461) resetRes=149(ineff=149,eff=0) | bc++=105610 bc--=121 inv=0
[DSB @ 1400000 calls] bc=12 isBypassOn=false| real=466 virt=174926 notrack=1224607 | touchRes=113795(eff=121,ineff=113674) resetRes=149(ineff=149,eff=0) | bc++=113823 bc--=121 inv=0
[DSB @ 1500000 calls] bc=12 isBypassOn=false| real=466 virt=187345 notrack=1312188 | touchRes=121911(eff=121,ineff=121790) resetRes=149(ineff=149,eff=0) | bc++=121939 bc--=121 inv=0
[DSB @ 1600000 calls] bc=12 isBypassOn=false| real=466 virt=199782 notrack=1399751 | touchRes=130008(eff=121,ineff=129887) resetRes=149(ineff=149,eff=0) | bc++=130036 bc--=121 inv=0
[DSB @ 1700000 calls] bc=12 isBypassOn=false| real=466 virt=212125 notrack=1487408 | touchRes=138051(eff=121,ineff=137930) resetRes=149(ineff=149,eff=0) | bc++=138079 bc--=121 inv=0
[DSB @ 1800000 calls] bc=12 isBypassOn=false| real=466 virt=224643 notrack=1574890 | touchRes=146235(eff=121,ineff=146114) resetRes=149(ineff=149,eff=0) | bc++=146263 bc--=121 inv=0
[DSB @ 1900000 calls] bc=12 isBypassOn=false| real=466 virt=237333 notrack=1662200 | touchRes=154516(eff=121,ineff=154395) resetRes=149(ineff=149,eff=0) | bc++=154544 bc--=121 inv=0
[DSB @ 2000000 calls] bc=12 isBypassOn=false| real=466 virt=249799 notrack=1749734 | touchRes=162604(eff=121,ineff=162483) resetRes=149(ineff=149,eff=0) | bc++=162632 bc--=121 inv=0
[DSB @ 2100000 calls] bc=12 isBypassOn=false| real=466 virt=262353 notrack=1837180 | touchRes=170851(eff=121,ineff=170730) resetRes=149(ineff=149,eff=0) | bc++=170879 bc--=121 inv=0
[DSB @ 2200000 calls] bc=12 isBypassOn=false| real=466 virt=274729 notrack=1924804 | touchRes=179005(eff=121,ineff=178884) resetRes=149(ineff=149,eff=0) | bc++=179033 bc--=121 inv=0
[DSB @ 2300000 calls] bc=12 isBypassOn=false| real=466 virt=287271 notrack=2012262 | touchRes=187244(eff=121,ineff=187123) resetRes=149(ineff=149,eff=0) | bc++=187272 bc--=121 inv=0
[DSB @ 2400000 calls] bc=12 isBypassOn=false| real=466 virt=299678 notrack=2099855 | touchRes=195346(eff=121,ineff=195225) resetRes=149(ineff=149,eff=0) | bc++=195374 bc--=121 inv=0
[DSB @ 2500000 calls] bc=12 isBypassOn=false| real=466 virt=312222 notrack=2187311 | touchRes=203523(eff=121,ineff=203402) resetRes=149(ineff=149,eff=0) | bc++=203551 bc--=121 inv=0
[DSB @ 2600000 calls] bc=12 isBypassOn=false| real=466 virt=324614 notrack=2274919 | touchRes=211627(eff=121,ineff=211506) resetRes=149(ineff=149,eff=0) | bc++=211655 bc--=121 inv=0
[DSB @ 2700000 calls] bc=12 isBypassOn=false| real=466 virt=337213 notrack=2362320 | touchRes=219774(eff=121,ineff=219653) resetRes=149(ineff=149,eff=0) | bc++=219802 bc--=121 inv=0
[DSB @ 2800000 calls] bc=12 isBypassOn=false| real=466 virt=349736 notrack=2449797 | touchRes=227956(eff=121,ineff=227835) resetRes=149(ineff=149,eff=0) | bc++=227984 bc--=121 inv=0
[DSB @ 2900000 calls] bc=12 isBypassOn=false| real=466 virt=362345 notrack=2537188 | touchRes=236096(eff=121,ineff=235975) resetRes=149(ineff=149,eff=0) | bc++=236124 bc--=121 inv=0
[DSB @ 3000000 calls] bc=12 isBypassOn=false| real=466 virt=374792 notrack=2624741 | touchRes=244190(eff=121,ineff=244069) resetRes=149(ineff=149,eff=0) | bc++=244218 bc--=121 inv=0
[DSB @ 3100000 calls] bc=12 isBypassOn=false| real=466 virt=387348 notrack=2712185 | touchRes=252353(eff=121,ineff=252232) resetRes=149(ineff=149,eff=0) | bc++=252381 bc--=121 inv=0
[DSB @ 3200000 calls] bc=12 isBypassOn=false| real=466 virt=399927 notrack=2799606 | touchRes=260494(eff=121,ineff=260373) resetRes=149(ineff=149,eff=0) | bc++=260522 bc--=121 inv=0
[DSB @ 3300000 calls] bc=12 isBypassOn=false| real=466 virt=412319 notrack=2887214 | touchRes=268576(eff=121,ineff=268455) resetRes=149(ineff=149,eff=0) | bc++=268604 bc--=121 inv=0
[DSB @ 3400000 calls] bc=12 isBypassOn=false| real=466 virt=424775 notrack=2974758 | touchRes=276647(eff=121,ineff=276526) resetRes=149(ineff=149,eff=0) | bc++=276675 bc--=121 inv=0
[DSB @ 3500000 calls] bc=12 isBypassOn=false| real=466 virt=437327 notrack=3062206 | touchRes=284783(eff=121,ineff=284662) resetRes=149(ineff=149,eff=0) | bc++=284811 bc--=121 inv=0
[DSB @ 3600000 calls] bc=12 isBypassOn=false| real=466 virt=449710 notrack=3149823 | touchRes=292856(eff=121,ineff=292735) resetRes=149(ineff=149,eff=0) | bc++=292884 bc--=121 inv=0
[DSB @ 3700000 calls] bc=12 isBypassOn=false| real=466 virt=462243 notrack=3237290 | touchRes=301008(eff=121,ineff=300887) resetRes=149(ineff=149,eff=0) | bc++=301036 bc--=121 inv=0
[DSB @ 3800000 calls] bc=12 isBypassOn=false| real=466 virt=474776 notrack=3324757 | touchRes=309143(eff=121,ineff=309022) resetRes=149(ineff=149,eff=0) | bc++=309171 bc--=121 inv=0
[DSB @ 3900000 calls] bc=12 isBypassOn=false| real=466 virt=487260 notrack=3412273 | touchRes=317350(eff=121,ineff=317229) resetRes=149(ineff=149,eff=0) | bc++=317378 bc--=121 inv=0
[DSB @ 4000000 calls] bc=12 isBypassOn=false| real=466 virt=499708 notrack=3499825 | touchRes=325464(eff=121,ineff=325343) resetRes=149(ineff=149,eff=0) | bc++=325492 bc--=121 inv=0
[DSB @ 4100000 calls] bc=12 isBypassOn=false| real=466 virt=512228 notrack=3587305 | touchRes=333640(eff=121,ineff=333519) resetRes=149(ineff=149,eff=0) | bc++=333668 bc--=121 inv=0
[DSB @ 4200000 calls] bc=12 isBypassOn=false| real=466 virt=524959 notrack=3674574 | touchRes=341895(eff=121,ineff=341774) resetRes=149(ineff=149,eff=0) | bc++=341923 bc--=121 inv=0
[DSB @ 4300000 calls] bc=12 isBypassOn=false| real=466 virt=537336 notrack=3762197 | touchRes=349967(eff=121,ineff=349846) resetRes=149(ineff=149,eff=0) | bc++=349995 bc--=121 inv=0
[DSB @ 4400000 calls] bc=12 isBypassOn=false| real=466 virt=549937 notrack=3849596 | touchRes=358119(eff=121,ineff=357998) resetRes=149(ineff=149,eff=0) | bc++=358147 bc--=121 inv=0
[DSB @ 4500000 calls] bc=12 isBypassOn=false| real=466 virt=562514 notrack=3937019 | touchRes=366276(eff=121,ineff=366155) resetRes=149(ineff=149,eff=0) | bc++=366304 bc--=121 inv=0
[DSB @ 4600000 calls] bc=12 isBypassOn=false| real=466 virt=574922 notrack=4024611 | touchRes=374407(eff=121,ineff=374286) resetRes=149(ineff=149,eff=0) | bc++=374435 bc--=121 inv=0
[DSB @ 4700000 calls] bc=12 isBypassOn=false| real=466 virt=587345 notrack=4112188 | touchRes=382521(eff=121,ineff=382400) resetRes=149(ineff=149,eff=0) | bc++=382549 bc--=121 inv=0
[DSB @ 4800000 calls] bc=12 isBypassOn=false| real=466 virt=599868 notrack=4199665 | touchRes=390664(eff=121,ineff=390543) resetRes=149(ineff=149,eff=0) | bc++=390692 bc--=121 inv=0
[DSB @ 4900000 calls] bc=12 isBypassOn=false| real=466 virt=612196 notrack=4287337 | touchRes=398795(eff=121,ineff=398674) resetRes=149(ineff=149,eff=0) | bc++=398823 bc--=121 inv=0
[DSB @ 5000000 calls] bc=12 isBypassOn=false| real=466 virt=624861 notrack=4374672 | touchRes=407064(eff=121,ineff=406943) resetRes=149(ineff=149,eff=0) | bc++=407092 bc--=121 inv=0
[DSB @ 5100000 calls] bc=12 isBypassOn=false| real=466 virt=637156 notrack=4462377 | touchRes=415040(eff=121,ineff=414919) resetRes=149(ineff=149,eff=0) | bc++=415068 bc--=121 inv=0
[DSB @ 5200000 calls] bc=12 isBypassOn=false| real=466 virt=649427 notrack=4550106 | touchRes=423133(eff=121,ineff=423012) resetRes=149(ineff=149,eff=0) | bc++=423161 bc--=121 inv=4
[DSB @ 5300000 calls] bc=12 isBypassOn=false| real=466 virt=661968 notrack=4637565 | touchRes=431424(eff=121,ineff=431303) resetRes=149(ineff=149,eff=0) | bc++=431452 bc--=121 inv=4
[DSB @ 5400000 calls] bc=12 isBypassOn=false| real=466 virt=674554 notrack=4724979 | touchRes=439697(eff=121,ineff=439576) resetRes=149(ineff=149,eff=0) | bc++=439725 bc--=121 inv=4
[DSB @ 5500000 calls] bc=12 isBypassOn=false| real=466 virt=687101 notrack=4812432 | touchRes=447946(eff=121,ineff=447825) resetRes=149(ineff=149,eff=0) | bc++=447974 bc--=121 inv=4
[DSB @ 5600000 calls] bc=12 isBypassOn=false| real=466 virt=699536 notrack=4899997 | touchRes=456085(eff=121,ineff=455964) resetRes=149(ineff=149,eff=0) | bc++=456113 bc--=121 inv=4
[DSB @ 5700000 calls] bc=12 isBypassOn=false| real=466 virt=711976 notrack=4987557 | touchRes=464373(eff=121,ineff=464252) resetRes=149(ineff=149,eff=0) | bc++=464401 bc--=121 inv=4
[DSB @ 5800000 calls] bc=12 isBypassOn=false| real=466 virt=724534 notrack=5074999 | touchRes=472624(eff=121,ineff=472503) resetRes=149(ineff=149,eff=0) | bc++=472652 bc--=121 inv=4
[DSB @ 5900000 calls] bc=12 isBypassOn=false| real=466 virt=737010 notrack=5162523 | touchRes=480902(eff=121,ineff=480781) resetRes=149(ineff=149,eff=0) | bc++=480930 bc--=121 inv=4
[DSB @ 6000000 calls] bc=12 isBypassOn=false| real=466 virt=749649 notrack=5249884 | touchRes=489219(eff=121,ineff=489098) resetRes=149(ineff=149,eff=0) | bc++=489247 bc--=121 inv=4
[DSB @ 6100000 calls] bc=12 isBypassOn=false| real=466 virt=762260 notrack=5337273 | touchRes=497484(eff=121,ineff=497363) resetRes=149(ineff=149,eff=0) | bc++=497512 bc--=121 inv=4
[DSB @ 6200000 calls] bc=12 isBypassOn=false| real=466 virt=774741 notrack=5424792 | touchRes=505771(eff=121,ineff=505650) resetRes=149(ineff=149,eff=0) | bc++=505799 bc--=121 inv=4
[DSB @ 6300000 calls] bc=12 isBypassOn=false| real=466 virt=787375 notrack=5512158 | touchRes=514134(eff=121,ineff=514013) resetRes=149(ineff=149,eff=0) | bc++=514162 bc--=121 inv=4
[DSB @ 6400000 calls] bc=12 isBypassOn=false| real=466 virt=799882 notrack=5599651 | touchRes=522369(eff=121,ineff=522248) resetRes=149(ineff=149,eff=0) | bc++=522397 bc--=121 inv=4
[DSB @ 6500000 calls] bc=12 isBypassOn=false| real=466 virt=812637 notrack=5686896 | touchRes=530689(eff=121,ineff=530568) resetRes=149(ineff=149,eff=0) | bc++=530717 bc--=121 inv=4
[DSB @ 6600000 calls] bc=12 isBypassOn=false| real=466 virt=825315 notrack=5774218 | touchRes=538995(eff=121,ineff=538874) resetRes=149(ineff=149,eff=0) | bc++=539023 bc--=121 inv=4
[DSB @ 6700000 calls] bc=12 isBypassOn=false| real=466 virt=837768 notrack=5861765 | touchRes=547328(eff=121,ineff=547207) resetRes=149(ineff=149,eff=0) | bc++=547356 bc--=121 inv=4
[DSB @ 6800000 calls] bc=12 isBypassOn=false| real=466 virt=850354 notrack=5949179 | touchRes=555607(eff=121,ineff=555486) resetRes=149(ineff=149,eff=0) | bc++=555635 bc--=121 inv=4
[DSB @ 6900000 calls] bc=12 isBypassOn=false| real=466 virt=862894 notrack=6036639 | touchRes=563888(eff=121,ineff=563767) resetRes=149(ineff=149,eff=0) | bc++=563916 bc--=121 inv=4
[DSB @ 7000000 calls] bc=12 isBypassOn=false| real=466 virt=875265 notrack=6124268 | touchRes=572106(eff=121,ineff=571985) resetRes=149(ineff=149,eff=0) | bc++=572134 bc--=121 inv=4
[DSB @ 7100000 calls] bc=12 isBypassOn=false| real=466 virt=887754 notrack=6211779 | touchRes=580256(eff=121,ineff=580135) resetRes=149(ineff=149,eff=0) | bc++=580284 bc--=121 inv=4
Exiting @ tick 26575708637500 because a thread reached the max instruction count
