warn: The `get_runtime_isa` function is deprecated. Please migrate away from using this function.
warn: The se.py script is deprecated. It will be removed in future releases of  gem5.
warn: The `get_runtime_isa` function is deprecated. Please migrate away from using this function.
Global frequency set at 1000000000000 ticks per second
src/base/statistics.hh:279: warn: One of the stats is a legacy stat. Legacy stat is a stat that does not belong to any statistics::Group. Legacy stat is deprecated.
src/base/remote_gdb.cc:418: warn: Sockets disabled, not accepting gdb connections
src/sim/process.cc:396: warn: Checkpoints for pipes, device drivers and sockets do not work.
gem5 Simulator System.  https://www.gem5.org
gem5 is copyrighted software; use the --copyright option for details.

gem5 version 23.0.0.1
gem5 compiled Apr  6 2026 01:50:35
gem5 started Apr  6 2026 03:09:07
gem5 executing on b49ce2a326be, pid 108646
command line: /opt/gem5/build/X86/gem5.opt --outdir=/workspace/results_l3/1MB/policy0Config2/mcf /workspace/configs/run_spec_l3.py --rp-type=DSBRP --l3-size=1MB --l3-assoc=16 --cpu-type=DerivO3CPU --cmd=./mcf_s_base.gem5-x86 --options=inp.in --mem-size=8GB --maxinst=250000000 --caches --l2cache --l1d_size=32kB --l1i_size=32kB --l1d_assoc=8 --l1i_assoc=8 --l2_size=256kB --l2_assoc=8 --checkpoint-restore=1 --checkpoint-dir=/workspace/checkpoints/mcf/m5out --restore-with-cpu=AtomicSimpleCPU --standard-switch=1 --warmup-insts=50000000 --dsb-enable-bypass=true --dsb-enable-aging=false --dsb-bypass-counter=6 --dsb-virtual-bypass-counter=3 --dsb-random-promotion=0 --dsb-minimum-bypass-counter=12

info: Standard input is not a terminal, disabling listeners.
Replacement policy: DSBRP
L1I size: 32kB, assoc: 8
L1D size: 32kB, assoc: 8
L2 size: 256kB, assoc: 8
L3 size: 1MB, L3 assoc: 16
Switch at instruction count:1
src/sim/simulate.cc:194: info: Entering event queue @ 24065090964500.  Starting simulation...
src/sim/simulate.cc:194: info: Entering event queue @ 24065090965500.  Starting simulation...
src/sim/power_state.cc:105: warn: PowerState: Already in the requested power state, request ignored
Switched CPUS @ tick 24065090965500
switching cpus
Switch at instruction count:50000000
src/sim/simulate.cc:194: info: Entering event queue @ 24065090966000.  Starting simulation...
[DSB @ 100000 calls] bc=12 isBypassOn=false| real=39 virt=12455 notrack=87505 | touchRes=2178(eff=20,ineff=2158) resetRes=67(ineff=2,eff=65) | bc++=2160 bc--=85 inv=8304
[DSB @ 200000 calls] bc=12 isBypassOn=false| real=40 virt=24936 notrack=175023 | touchRes=3250(eff=20,ineff=3230) resetRes=183(ineff=2,eff=181) | bc++=3232 bc--=201 inv=18193
[DSB @ 300000 calls] bc=12 isBypassOn=true| real=46 virt=37371 notrack=262582 | touchRes=4294(eff=22,ineff=4272) resetRes=294(ineff=2,eff=292) | bc++=4274 bc--=314 inv=28078
[DSB @ 400000 calls] bc=12 isBypassOn=false| real=53 virt=49837 notrack=350109 | touchRes=5423(eff=24,ineff=5399) resetRes=400(ineff=2,eff=398) | bc++=5401 bc--=422 inv=37944
[DSB @ 500000 calls] bc=12 isBypassOn=false| real=76 virt=62358 notrack=437565 | touchRes=6238(eff=28,ineff=6210) resetRes=467(ineff=2,eff=465) | bc++=6212 bc--=493 inv=48174
src/sim/simulate.cc:194: info: Entering event queue @ 24231186665500.  Starting simulation...
Switching CPUS @ tick 24231186665500
Simulation ends instruction count:250000000
switching cpus
**** REAL SIMULATION ****
src/sim/simulate.cc:194: info: Entering event queue @ 24231186860500.  Starting simulation...
[DSB @ 600000 calls] bc=12 isBypassOn=false| real=77 virt=74858 notrack=525064 | touchRes=7062(eff=28,ineff=7034) resetRes=514(ineff=2,eff=512) | bc++=7036 bc--=540 inv=58346
[DSB @ 700000 calls] bc=12 isBypassOn=false| real=78 virt=87433 notrack=612488 | touchRes=7917(eff=29,ineff=7888) resetRes=590(ineff=2,eff=588) | bc++=7890 bc--=617 inv=68560
[DSB @ 800000 calls] bc=12 isBypassOn=false| real=78 virt=100038 notrack=699883 | touchRes=8722(eff=29,ineff=8693) resetRes=640(ineff=2,eff=638) | bc++=8695 bc--=667 inv=78789
[DSB @ 900000 calls] bc=12 isBypassOn=false| real=89 virt=112506 notrack=787404 | touchRes=9743(eff=30,ineff=9713) resetRes=744(ineff=2,eff=742) | bc++=9715 bc--=772 inv=88744
[DSB @ 1000000 calls] bc=12 isBypassOn=false| real=105 virt=125025 notrack=874869 | touchRes=10848(eff=33,ineff=10815) resetRes=864(ineff=2,eff=862) | bc++=10817 bc--=895 inv=98644
[DSB @ 1100000 calls] bc=12 isBypassOn=false| real=111 virt=137530 notrack=962358 | touchRes=11937(eff=35,ineff=11902) resetRes=1006(ineff=2,eff=1004) | bc++=11904 bc--=1039 inv=108547
[DSB @ 1200000 calls] bc=12 isBypassOn=false| real=118 virt=150044 notrack=1049837 | touchRes=12933(eff=37,ineff=12896) resetRes=1119(ineff=2,eff=1117) | bc++=12898 bc--=1154 inv=118498
[DSB @ 1300000 calls] bc=12 isBypassOn=false| real=122 virt=162393 notrack=1137484 | touchRes=13740(eff=38,ineff=13702) resetRes=1175(ineff=2,eff=1173) | bc++=13704 bc--=1211 inv=128556
[DSB @ 1400000 calls] bc=12 isBypassOn=false| real=122 virt=174903 notrack=1224974 | touchRes=14559(eff=38,ineff=14521) resetRes=1231(ineff=2,eff=1229) | bc++=14523 bc--=1267 inv=138746
[DSB @ 1500000 calls] bc=10 isBypassOn=true| real=124 virt=187566 notrack=1312309 | touchRes=15379(eff=38,ineff=15341) resetRes=1296(ineff=2,eff=1294) | bc++=15343 bc--=1332 inv=149078
[DSB @ 1600000 calls] bc=12 isBypassOn=false| real=127 virt=200219 notrack=1399653 | touchRes=16302(eff=38,ineff=16264) resetRes=1361(ineff=2,eff=1359) | bc++=16266 bc--=1397 inv=159157
[DSB @ 1700000 calls] bc=12 isBypassOn=false| real=131 virt=212745 notrack=1487123 | touchRes=17487(eff=38,ineff=17449) resetRes=1484(ineff=2,eff=1482) | bc++=17451 bc--=1520 inv=168992
[DSB @ 1800000 calls] bc=12 isBypassOn=false| real=9639 virt=224035 notrack=1566325 | touchRes=19260(eff=813,ineff=18447) resetRes=1651(ineff=38,eff=1613) | bc++=18485 bc--=2426 inv=178706
[DSB @ 1900000 calls] bc=12 isBypassOn=false| real=9640 virt=236349 notrack=1654010 | touchRes=20359(eff=813,ineff=19546) resetRes=1771(ineff=38,eff=1733) | bc++=19584 bc--=2546 inv=188476
[DSB @ 2000000 calls] bc=12 isBypassOn=false| real=9642 virt=248789 notrack=1741568 | touchRes=21192(eff=813,ineff=20379) resetRes=1837(ineff=38,eff=1799) | bc++=20417 bc--=2612 inv=198614
[DSB @ 2100000 calls] bc=12 isBypassOn=false| real=9646 virt=261103 notrack=1829250 | touchRes=22074(eff=813,ineff=21261) resetRes=1893(ineff=38,eff=1855) | bc++=21299 bc--=2668 inv=208634
[DSB @ 2200000 calls] bc=12 isBypassOn=false| real=9648 virt=273698 notrack=1916653 | touchRes=22908(eff=813,ineff=22095) resetRes=1952(ineff=38,eff=1914) | bc++=22133 bc--=2727 inv=218879
[DSB @ 2300000 calls] bc=12 isBypassOn=false| real=9650 virt=286367 notrack=2003982 | touchRes=23754(eff=814,ineff=22940) resetRes=2009(ineff=38,eff=1971) | bc++=22978 bc--=2785 inv=229162
[DSB @ 2400000 calls] bc=12 isBypassOn=false| real=9654 virt=298888 notrack=2091457 | touchRes=24840(eff=814,ineff=24026) resetRes=2125(ineff=38,eff=2087) | bc++=24064 bc--=2901 inv=239075
[DSB @ 2500000 calls] bc=12 isBypassOn=false| real=9657 virt=311334 notrack=2179008 | touchRes=25973(eff=816,ineff=25157) resetRes=2245(ineff=38,eff=2207) | bc++=25195 bc--=3023 inv=248854
[DSB @ 2600000 calls] bc=12 isBypassOn=false| real=9669 virt=323786 notrack=2266544 | touchRes=27062(eff=820,ineff=26242) resetRes=2391(ineff=38,eff=2353) | bc++=26280 bc--=3173 inv=258715
[DSB @ 2700000 calls] bc=12 isBypassOn=false| real=9678 virt=336319 notrack=2354002 | touchRes=27998(eff=820,ineff=27178) resetRes=2485(ineff=38,eff=2447) | bc++=27216 bc--=3267 inv=268755
[DSB @ 2800000 calls] bc=12 isBypassOn=false| real=9679 virt=348955 notrack=2441365 | touchRes=28872(eff=820,ineff=28052) resetRes=2540(ineff=38,eff=2502) | bc++=28090 bc--=3322 inv=278926
[DSB @ 2900000 calls] bc=12 isBypassOn=false| real=9685 virt=361664 notrack=2528650 | touchRes=29650(eff=822,ineff=28828) resetRes=2618(ineff=38,eff=2580) | bc++=28866 bc--=3402 inv=289299
[DSB @ 3000000 calls] bc=12 isBypassOn=false| real=9685 virt=374008 notrack=2616306 | touchRes=30399(eff=822,ineff=29577) resetRes=2686(ineff=38,eff=2648) | bc++=29615 bc--=3470 inv=299408
Exiting @ tick 24456280241500 because a thread reached the max instruction count
