warn: The `get_runtime_isa` function is deprecated. Please migrate away from using this function.
warn: The se.py script is deprecated. It will be removed in future releases of  gem5.
warn: The `get_runtime_isa` function is deprecated. Please migrate away from using this function.
Global frequency set at 1000000000000 ticks per second
src/base/statistics.hh:279: warn: One of the stats is a legacy stat. Legacy stat is a stat that does not belong to any statistics::Group. Legacy stat is deprecated.
src/base/remote_gdb.cc:418: warn: Sockets disabled, not accepting gdb connections
src/sim/process.cc:396: warn: Checkpoints for pipes, device drivers and sockets do not work.
gem5 Simulator System.  https://www.gem5.org
gem5 is copyrighted software; use the --copyright option for details.

gem5 version 23.0.0.1
gem5 compiled Apr  6 2026 01:50:35
gem5 started Apr  6 2026 03:47:54
gem5 executing on b49ce2a326be, pid 115761
command line: /opt/gem5/build/X86/gem5.opt --outdir=/workspace/results_l3/1MB/policy0Config2/lbm /workspace/configs/run_spec_l3.py --rp-type=DSBRP --l3-size=1MB --l3-assoc=16 --cpu-type=DerivO3CPU --cmd=./lbm_s_base.gem5-x86 '--options=2000 reference.dat 0 0 200_200_260_ldc.of' --mem-size=8GB --maxinst=250000000 --caches --l2cache --l1d_size=32kB --l1i_size=32kB --l1d_assoc=8 --l1i_assoc=8 --l2_size=256kB --l2_assoc=8 --checkpoint-restore=1 --checkpoint-dir=/workspace/checkpoints/lbm/m5out --restore-with-cpu=AtomicSimpleCPU --standard-switch=1 --warmup-insts=50000000 --dsb-enable-bypass=true --dsb-enable-aging=false --dsb-bypass-counter=6 --dsb-virtual-bypass-counter=3 --dsb-random-promotion=0 --dsb-minimum-bypass-counter=12

info: Standard input is not a terminal, disabling listeners.
Replacement policy: DSBRP
L1I size: 32kB, assoc: 8
L1D size: 32kB, assoc: 8
L2 size: 256kB, assoc: 8
L3 size: 1MB, L3 assoc: 16
Switch at instruction count:1
src/sim/simulate.cc:194: info: Entering event queue @ 25728322212500.  Starting simulation...
src/sim/simulate.cc:194: info: Entering event queue @ 25728322214000.  Starting simulation...
src/sim/power_state.cc:105: warn: PowerState: Already in the requested power state, request ignored
Switched CPUS @ tick 25728322214000
switching cpus
Switch at instruction count:50000000
src/sim/simulate.cc:194: info: Entering event queue @ 25728322215000.  Starting simulation...
[DSB @ 100000 calls] bc=7 isBypassOn=true| real=8299 virt=11394 notrack=80306 | touchRes=2330(eff=1010,ineff=1320) resetRes=545(ineff=214,eff=331) | bc++=1534 bc--=1341 inv=8627
[DSB @ 200000 calls] bc=1 isBypassOn=true| real=44403 virt=19359 notrack=136237 | touchRes=3242(eff=1734,ineff=1508) resetRes=1857(ineff=1228,eff=629) | bc++=2736 bc--=2363 inv=26623
[DSB @ 300000 calls] bc=5 isBypassOn=true| real=76157 virt=27815 notrack=196027 | touchRes=4122(eff=2393,ineff=1729) resetRes=3081(ineff=2145,eff=936) | bc++=3874 bc--=3329 inv=44509
[DSB @ 400000 calls] bc=0 isBypassOn=true| real=108299 virt=36431 notrack=255269 | touchRes=4959(eff=3025,ineff=1934) resetRes=4250(ineff=3005,eff=1245) | bc++=4939 bc--=4270 inv=61850
[DSB @ 500000 calls] bc=7 isBypassOn=true| real=134028 virt=45823 notrack=320148 | touchRes=5798(eff=3627,ineff=2171) resetRes=5336(ineff=3783,eff=1553) | bc++=5954 bc--=5180 inv=79017
[DSB @ 600000 calls] bc=0 isBypassOn=true| real=163102 virt=54720 notrack=382177 | touchRes=6593(eff=4201,ineff=2392) resetRes=6465(ineff=4604,eff=1861) | bc++=6996 bc--=6062 inv=95910
[DSB @ 700000 calls] bc=12 isBypassOn=false| real=199972 virt=62578 notrack=437449 | touchRes=7564(eff=4983,ineff=2581) resetRes=7805(ineff=5645,eff=2160) | bc++=8226 bc--=7143 inv=114288
[DSB @ 800000 calls] bc=12 isBypassOn=false| real=215444 virt=73109 notrack=511446 | touchRes=8158(eff=5284,ineff=2874) resetRes=8529(ineff=6092,eff=2437) | bc++=8966 bc--=7721 inv=128834
[DSB @ 900000 calls] bc=9 isBypassOn=true| real=243385 virt=82048 notrack=574566 | touchRes=8943(eff=5828,ineff=3115) resetRes=9599(ineff=6856,eff=2743) | bc++=9971 bc--=8571 inv=145598
[DSB @ 1000000 calls] bc=12 isBypassOn=true| real=279297 virt=89967 notrack=630735 | touchRes=9902(eff=6585,ineff=3317) resetRes=10963(ineff=7911,eff=3052) | bc++=11228 bc--=9637 inv=163597
[DSB @ 1100000 calls] bc=3 isBypassOn=true| real=312863 virt=98393 notrack=688743 | touchRes=10837(eff=7298,ineff=3539) resetRes=12210(ineff=8811,eff=3399) | bc++=12350 bc--=10697 inv=181172
[DSB @ 1200000 calls] bc=8 isBypassOn=true| real=335901 virt=107804 notrack=756294 | touchRes=11567(eff=7783,ineff=3784) resetRes=13221(ineff=9525,eff=3696) | bc++=13309 bc--=11479 inv=197572
[DSB @ 1300000 calls] bc=4 isBypassOn=true| real=365829 virt=116639 notrack=817531 | touchRes=12446(eff=8398,ineff=4048) resetRes=14340(ineff=10327,eff=4013) | bc++=14375 bc--=12411 inv=214544
[DSB @ 1400000 calls] bc=1 isBypassOn=true| real=398382 virt=125002 notrack=876615 | touchRes=13350(eff=9094,ineff=4256) resetRes=15614(ineff=11285,eff=4329) | bc++=15541 bc--=13423 inv=232429
[DSB @ 1500000 calls] bc=8 isBypassOn=true| real=427123 virt=133917 notrack=938959 | touchRes=14226(eff=9743,ineff=4483) resetRes=16751(ineff=12118,eff=4633) | bc++=16601 bc--=14376 inv=249415
[DSB @ 1600000 calls] bc=12 isBypassOn=false| real=442846 virt=144429 notrack=1012724 | touchRes=14849(eff=10080,ineff=4769) resetRes=17486(ineff=12558,eff=4928) | bc++=17327 bc--=15008 inv=263783
[DSB @ 1700000 calls] bc=6 isBypassOn=true| real=461836 virt=154624 notrack=1083539 | touchRes=15539(eff=10472,ineff=5067) resetRes=18296(ineff=13048,eff=5248) | bc++=18115 bc--=15720 inv=278132
[DSB @ 1800000 calls] bc=12 isBypassOn=false| real=487693 virt=164010 notrack=1148296 | touchRes=16283(eff=11006,ineff=5277) resetRes=19389(ineff=13842,eff=5547) | bc++=19119 bc--=16553 inv=295031
[DSB @ 1900000 calls] bc=12 isBypassOn=false| real=504965 virt=174384 notrack=1220650 | touchRes=16881(eff=11326,ineff=5555) resetRes=20184(ineff=14323,eff=5861) | bc++=19878 bc--=17187 inv=309995
src/sim/simulate.cc:194: info: Entering event queue @ 25957334997500.  Starting simulation...
Switching CPUS @ tick 25957334997500
Simulation ends instruction count:250000000
switching cpus
**** REAL SIMULATION ****
src/sim/simulate.cc:194: info: Entering event queue @ 25957335172500.  Starting simulation...
[DSB @ 2000000 calls] bc=12 isBypassOn=false| real=531074 virt=183694 notrack=1285231 | touchRes=17706(eff=11884,ineff=5822) resetRes=21189(ineff=15013,eff=6176) | bc++=20835 bc--=18060 inv=325604
[DSB @ 2100000 calls] bc=6 isBypassOn=true| real=556133 virt=192915 notrack=1350951 | touchRes=18476(eff=12408,ineff=6068) resetRes=22260(ineff=15767,eff=6493) | bc++=21835 bc--=18901 inv=342228
[DSB @ 2200000 calls] bc=0 isBypassOn=true| real=587873 virt=201429 notrack=1410697 | touchRes=19391(eff=13106,ineff=6285) resetRes=23464(ineff=16667,eff=6797) | bc++=22952 bc--=19903 inv=359914
[DSB @ 2300000 calls] bc=12 isBypassOn=false| real=624594 virt=209263 notrack=1466142 | touchRes=20370(eff=13882,ineff=6488) resetRes=24821(ineff=17694,eff=7127) | bc++=24182 bc--=21009 inv=378276
[DSB @ 2400000 calls] bc=5 isBypassOn=true| real=660940 virt=217240 notrack=1521819 | touchRes=21326(eff=14630,ineff=6696) resetRes=26134(ineff=18688,eff=7446) | bc++=25384 bc--=22076 inv=396341
[DSB @ 2500000 calls] bc=12 isBypassOn=false| real=693184 virt=225764 notrack=1581051 | touchRes=22255(eff=15334,ineff=6921) resetRes=27400(ineff=19649,eff=7751) | bc++=26570 bc--=23085 inv=414701
[DSB @ 2600000 calls] bc=0 isBypassOn=true| real=731927 virt=233494 notrack=1634578 | touchRes=23301(eff=16191,ineff=7110) resetRes=28819(ineff=20729,eff=8090) | bc++=27839 bc--=24281 inv=432776
[DSB @ 2700000 calls] bc=1 isBypassOn=true| real=755593 virt=243029 notrack=1701377 | touchRes=24095(eff=16718,ineff=7377) resetRes=29825(ineff=21389,eff=8436) | bc++=28766 bc--=25154 inv=448401
[DSB @ 2800000 calls] bc=4 isBypassOn=true| real=774310 virt=253033 notrack=1772656 | touchRes=24744(eff=17113,ineff=7631) resetRes=30708(ineff=21976,eff=8732) | bc++=29607 bc--=25845 inv=464116
[DSB @ 2900000 calls] bc=11 isBypassOn=true| real=803857 virt=261775 notrack=1834367 | touchRes=25622(eff=17778,ineff=7844) resetRes=31850(ineff=22812,eff=9038) | bc++=30656 bc--=26816 inv=481157
[DSB @ 3000000 calls] bc=1 isBypassOn=true| real=839941 virt=269781 notrack=1890277 | touchRes=26658(eff=18599,ineff=8059) resetRes=33190(ineff=23840,eff=9350) | bc++=31899 bc--=27949 inv=499413
[DSB @ 3100000 calls] bc=1 isBypassOn=true| real=858553 virt=280002 notrack=1961444 | touchRes=27335(eff=18983,ineff=8352) resetRes=33966(ineff=24324,eff=9642) | bc++=32676 bc--=28625 inv=513669
[DSB @ 3200000 calls] bc=12 isBypassOn=true| real=884486 virt=289310 notrack=2026203 | touchRes=28134(eff=19560,ineff=8574) resetRes=35110(ineff=25117,eff=9993) | bc++=33691 bc--=29553 inv=530094
[DSB @ 3300000 calls] bc=7 isBypassOn=true| real=909625 virt=298715 notrack=2091659 | touchRes=29004(eff=20172,ineff=8832) resetRes=36126(ineff=25828,eff=10298) | bc++=34660 bc--=30470 inv=546778
[DSB @ 3400000 calls] bc=12 isBypassOn=false| real=920169 virt=309803 notrack=2170027 | touchRes=29521(eff=20389,ineff=9132) resetRes=36684(ineff=26084,eff=10600) | bc++=35216 bc--=30989 inv=559327
[DSB @ 3500000 calls] bc=2 isBypassOn=true| real=958148 virt=317574 notrack=2224277 | touchRes=30576(eff=21242,ineff=9334) resetRes=38060(ineff=27144,eff=10916) | bc++=36478 bc--=32158 inv=577472
[DSB @ 3600000 calls] bc=9 isBypassOn=true| real=987493 virt=326456 notrack=2286050 | touchRes=31481(eff=21927,ineff=9554) resetRes=39264(ineff=28031,eff=11233) | bc++=37585 bc--=33160 inv=595111
[DSB @ 3700000 calls] bc=0 isBypassOn=true| real=1019274 virt=335019 notrack=2345706 | touchRes=32442(eff=22659,ineff=9783) resetRes=40426(ineff=28895,eff=11531) | bc++=38678 bc--=34190 inv=612264
[DSB @ 3800000 calls] bc=10 isBypassOn=true| real=1053300 virt=343300 notrack=2403399 | touchRes=33426(eff=23418,ineff=10008) resetRes=41730(ineff=29893,eff=11837) | bc++=39901 bc--=35255 inv=630507
[DSB @ 3900000 calls] bc=10 isBypassOn=true| real=1076928 virt=352892 notrack=2470179 | touchRes=34212(eff=23952,ineff=10260) resetRes=42711(ineff=30563,eff=12148) | bc++=40823 bc--=36100 inv=646210
[DSB @ 4000000 calls] bc=11 isBypassOn=true| real=1094071 virt=363207 notrack=2542721 | touchRes=34827(eff=24290,ineff=10537) resetRes=43441(ineff=31005,eff=12436) | bc++=41542 bc--=36726 inv=660699
[DSB @ 4100000 calls] bc=6 isBypassOn=true| real=1119975 virt=372594 notrack=2607430 | touchRes=35740(eff=24933,ineff=10807) resetRes=44548(ineff=31799,eff=12749) | bc++=42606 bc--=37682 inv=677767
[DSB @ 4200000 calls] bc=11 isBypassOn=true| real=1139274 virt=382676 notrack=2678049 | touchRes=36438(eff=25362,ineff=11076) resetRes=45376(ineff=32331,eff=13045) | bc++=43407 bc--=38407 inv=692942
[DSB @ 4300000 calls] bc=3 isBypassOn=true| real=1176113 virt=390710 notrack=2733176 | touchRes=37430(eff=26137,ineff=11293) resetRes=46713(ineff=33357,eff=13356) | bc++=44650 bc--=39493 inv=711369
[DSB @ 4400000 calls] bc=12 isBypassOn=true| real=1187316 virt=401632 notrack=2811051 | touchRes=38041(eff=26412,ineff=11629) resetRes=47345(ineff=33681,eff=13664) | bc++=45310 bc--=40076 inv=724684
[DSB @ 4500000 calls] bc=12 isBypassOn=false| real=1216537 virt=410339 notrack=2873123 | touchRes=38847(eff=27001,ineff=11846) resetRes=48486(ineff=34504,eff=13982) | bc++=46350 bc--=40983 inv=741293
[DSB @ 4600000 calls] bc=5 isBypassOn=true| real=1236778 virt=420090 notrack=2943131 | touchRes=39510(eff=27404,ineff=12106) resetRes=49361(ineff=35083,eff=14278) | bc++=47189 bc--=41682 inv=756333
[DSB @ 4700000 calls] bc=12 isBypassOn=false| real=1273468 virt=427899 notrack=2998632 | touchRes=40532(eff=28223,ineff=12309) resetRes=50702(ineff=36101,eff=14601) | bc++=48410 bc--=42824 inv=774597
[DSB @ 4800000 calls] bc=4 isBypassOn=true| real=1287523 virt=438610 notrack=3073866 | touchRes=41187(eff=28566,ineff=12621) resetRes=51417(ineff=36521,eff=14896) | bc++=49142 bc--=43462 inv=788169
[DSB @ 4900000 calls] bc=12 isBypassOn=false| real=1307588 virt=448529 notrack=3143882 | touchRes=41876(eff=28966,ineff=12910) resetRes=52291(ineff=37081,eff=15210) | bc++=49991 bc--=44176 inv=803873
[DSB @ 5000000 calls] bc=7 isBypassOn=true| real=1335274 virt=457602 notrack=3207123 | touchRes=42714(eff=29567,ineff=13147) resetRes=53394(ineff=37875,eff=15519) | bc++=51022 bc--=45086 inv=821147
[DSB @ 5100000 calls] bc=4 isBypassOn=true| real=1348713 virt=468375 notrack=3282911 | touchRes=43273(eff=29835,ineff=13438) resetRes=54102(ineff=38263,eff=15839) | bc++=51701 bc--=45674 inv=834907
[DSB @ 5200000 calls] bc=12 isBypassOn=false| real=1373447 virt=477613 notrack=3348939 | touchRes=44047(eff=30368,ineff=13679) resetRes=55091(ineff=38951,eff=16140) | bc++=52630 bc--=46508 inv=851070
[DSB @ 5300000 calls] bc=9 isBypassOn=true| real=1406639 virt=485939 notrack=3407421 | touchRes=44987(eff=31115,ineff=13872) resetRes=56313(ineff=39884,eff=16429) | bc++=53756 bc--=47544 inv=868534
[DSB @ 5400000 calls] bc=0 isBypassOn=true| real=1428270 virt=495769 notrack=3475960 | touchRes=45725(eff=31592,ineff=14133) resetRes=57212(ineff=40459,eff=16753) | bc++=54592 bc--=48345 inv=883033
[DSB @ 5500000 calls] bc=0 isBypassOn=true| real=1457401 virt=504676 notrack=3537922 | touchRes=46637(eff=32254,ineff=14383) resetRes=58360(ineff=41292,eff=17068) | bc++=55675 bc--=49322 inv=900461
[DSB @ 5600000 calls] bc=12 isBypassOn=false| real=1492714 virt=512939 notrack=3594346 | touchRes=47607(eff=33004,ineff=14603) resetRes=59666(ineff=42273,eff=17393) | bc++=56876 bc--=50397 inv=918277
[DSB @ 5700000 calls] bc=12 isBypassOn=false| real=1524413 virt=521564 notrack=3654022 | touchRes=48471(eff=33657,ineff=14814) resetRes=60942(ineff=43201,eff=17741) | bc++=58015 bc--=51398 inv=935770
[DSB @ 5800000 calls] bc=1 isBypassOn=true| real=1561457 virt=529457 notrack=3709085 | touchRes=49496(eff=34494,ineff=15002) resetRes=62338(ineff=44265,eff=18073) | bc++=59267 bc--=52567 inv=953963
[DSB @ 5900000 calls] bc=8 isBypassOn=true| real=1592576 virt=538049 notrack=3769374 | touchRes=50337(eff=35134,ineff=15203) resetRes=63535(ineff=45152,eff=18383) | bc++=60355 bc--=53517 inv=971059
[DSB @ 6000000 calls] bc=12 isBypassOn=false| real=1626434 virt=546377 notrack=3827188 | touchRes=51259(eff=35847,ineff=15412) resetRes=64759(ineff=46077,eff=18682) | bc++=61489 bc--=54529 inv=988758
[DSB @ 6100000 calls] bc=3 isBypassOn=true| real=1662525 virt=554367 notrack=3883107 | touchRes=52193(eff=36576,ineff=15617) resetRes=66113(ineff=47097,eff=19016) | bc++=62714 bc--=55592 inv=1006618
[DSB @ 6200000 calls] bc=12 isBypassOn=false| real=1699035 virt=562324 notrack=3938640 | touchRes=53204(eff=37383,ineff=15821) resetRes=67460(ineff=48154,eff=19306) | bc++=63975 bc--=56689 inv=1025199
[DSB @ 6300000 calls] bc=0 isBypassOn=true| real=1718042 virt=572352 notrack=4009605 | touchRes=53875(eff=37793,ineff=16082) resetRes=68341(ineff=48708,eff=19633) | bc++=64790 bc--=57426 inv=1040524
[DSB @ 6400000 calls] bc=0 isBypassOn=true| real=1743278 virt=581696 notrack=4075025 | touchRes=54667(eff=38340,ineff=16327) resetRes=69391(ineff=49432,eff=19959) | bc++=65759 bc--=58299 inv=1056583
[DSB @ 6500000 calls] bc=0 isBypassOn=true| real=1780029 virt=589522 notrack=4130448 | touchRes=55645(eff=39118,ineff=16527) resetRes=70764(ineff=50469,eff=20295) | bc++=66996 bc--=59413 inv=1074921
[DSB @ 6600000 calls] bc=4 isBypassOn=true| real=1808148 virt=598560 notrack=4193291 | touchRes=56484(eff=39718,ineff=16766) resetRes=71833(ineff=51228,eff=20605) | bc++=67994 bc--=60323 inv=1091300
[DSB @ 6700000 calls] bc=12 isBypassOn=false| real=1831893 virt=608088 notrack=4260018 | touchRes=57273(eff=40260,ineff=17013) resetRes=72841(ineff=51946,eff=20895) | bc++=68959 bc--=61155 inv=1107481
[DSB @ 6800000 calls] bc=2 isBypassOn=true| real=1866316 virt=616083 notrack=4317600 | touchRes=58240(eff=40991,ineff=17249) resetRes=74057(ineff=52867,eff=21190) | bc++=70116 bc--=62181 inv=1124834
[DSB @ 6900000 calls] bc=12 isBypassOn=false| real=1885605 virt=626371 notrack=4388023 | touchRes=58972(eff=41436,ineff=17536) resetRes=74959(ineff=53434,eff=21525) | bc++=70970 bc--=62961 inv=1139493
[DSB @ 7000000 calls] bc=10 isBypassOn=true| real=1913843 virt=635442 notrack=4450714 | touchRes=59850(eff=42060,ineff=17790) resetRes=76098(ineff=54263,eff=21835) | bc++=72053 bc--=63895 inv=1156830
[DSB @ 7100000 calls] bc=0 isBypassOn=true| real=1944373 virt=644056 notrack=4511570 | touchRes=60709(eff=42712,ineff=17997) resetRes=77265(ineff=55124,eff=22141) | bc++=73121 bc--=64853 inv=1173986
[DSB @ 7200000 calls] bc=12 isBypassOn=true| real=1975975 virt=652645 notrack=4571379 | touchRes=61633(eff=43402,ineff=18231) resetRes=78469(ineff=56024,eff=22445) | bc++=74255 bc--=65847 inv=1191589
[DSB @ 7300000 calls] bc=12 isBypassOn=false| real=1999019 virt=662225 notrack=4638755 | touchRes=62415(eff=43914,ineff=18501) resetRes=79418(ineff=56659,eff=22759) | bc++=75160 bc--=66673 inv=1207727
[DSB @ 7400000 calls] bc=1 isBypassOn=true| real=2022677 virt=671744 notrack=4705578 | touchRes=63210(eff=44457,ineff=18753) resetRes=80423(ineff=57335,eff=23088) | bc++=76088 bc--=67545 inv=1223772
[DSB @ 7500000 calls] bc=0 isBypassOn=true| real=2049797 virt=680867 notrack=4769335 | touchRes=64022(eff=45028,ineff=18994) resetRes=81475(ineff=58081,eff=23394) | bc++=77075 bc--=68422 inv=1240375
[DSB @ 7600000 calls] bc=12 isBypassOn=true| real=2078147 virt=689862 notrack=4831990 | touchRes=64873(eff=45641,ineff=19232) resetRes=82632(ineff=58926,eff=23706) | bc++=78158 bc--=69347 inv=1257613
[DSB @ 7700000 calls] bc=0 isBypassOn=true| real=2117454 virt=697381 notrack=4885164 | touchRes=65957(eff=46522,ineff=19435) resetRes=84009(ineff=59980,eff=24029) | bc++=79415 bc--=70551 inv=1275637
[DSB @ 7800000 calls] bc=10 isBypassOn=true| real=2148770 virt=705830 notrack=4945399 | touchRes=66835(eff=47205,ineff=19630) resetRes=85262(ineff=60935,eff=24327) | bc++=80565 bc--=71532 inv=1293613
[DSB @ 7900000 calls] bc=11 isBypassOn=true| real=2159691 virt=716972 notrack=5023336 | touchRes=67389(eff=47442,ineff=19947) resetRes=85886(ineff=61231,eff=24655) | bc++=81178 bc--=72097 inv=1307295
[DSB @ 8000000 calls] bc=10 isBypassOn=true| real=2178354 virt=727111 notrack=5094534 | touchRes=68021(eff=47797,ineff=20224) resetRes=86712(ineff=61754,eff=24958) | bc++=81978 bc--=72755 inv=1322554
[DSB @ 8100000 calls] bc=8 isBypassOn=true| real=2212514 virt=735260 notrack=5152225 | touchRes=68984(eff=48554,ineff=20430) resetRes=87957(ineff=62724,eff=25233) | bc++=83154 bc--=73787 inv=1340432
[DSB @ 8200000 calls] bc=1 isBypassOn=true| real=2236359 virt=744891 notrack=5218749 | touchRes=69841(eff=49144,ineff=20697) resetRes=88956(ineff=63396,eff=25560) | bc++=84093 bc--=74704 inv=1356516
[DSB @ 8300000 calls] bc=4 isBypassOn=true| real=2275117 virt=752582 notrack=5272300 | touchRes=70902(eff=50012,ineff=20890) resetRes=90339(ineff=64468,eff=25871) | bc++=85358 bc--=75883 inv=1374766
[DSB @ 8400000 calls] bc=0 isBypassOn=true| real=2292909 virt=762813 notrack=5344277 | touchRes=71552(eff=50401,ineff=21151) resetRes=91196(ineff=65001,eff=26195) | bc++=86152 bc--=76596 inv=1389834
[DSB @ 8500000 calls] bc=12 isBypassOn=false| real=2328255 virt=771061 notrack=5400683 | touchRes=72573(eff=51201,ineff=21372) resetRes=92494(ineff=65992,eff=26502) | bc++=87364 bc--=77703 inv=1408684
[DSB @ 8600000 calls] bc=3 isBypassOn=true| real=2338967 virt=782195 notrack=5478837 | touchRes=73084(eff=51408,ineff=21676) resetRes=93096(ineff=66286,eff=26810) | bc++=87962 bc--=78218 inv=1421765
[DSB @ 8700000 calls] bc=1 isBypassOn=true| real=2369167 virt=790806 notrack=5540026 | touchRes=73893(eff=52005,ineff=21888) resetRes=94287(ineff=67179,eff=27108) | bc++=89067 bc--=79113 inv=1439297
[DSB @ 8800000 calls] bc=0 isBypassOn=true| real=2399839 virt=799506 notrack=5600654 | touchRes=74837(eff=52688,ineff=22149) resetRes=95500(ineff=68044,eff=27456) | bc++=90193 bc--=80144 inv=1456337
[DSB @ 8900000 calls] bc=12 isBypassOn=false| real=2410468 virt=810595 notrack=5678936 | touchRes=75385(eff=52920,ineff=22465) resetRes=96110(ineff=68364,eff=27746) | bc++=90829 bc--=80666 inv=1469667
[DSB @ 9000000 calls] bc=2 isBypassOn=true| real=2432214 virt=820302 notrack=5747483 | touchRes=76105(eff=53390,ineff=22715) resetRes=96982(ineff=68926,eff=28056) | bc++=91641 bc--=81446 inv=1484947
[DSB @ 9100000 calls] bc=7 isBypassOn=true| real=2450004 virt=830556 notrack=5819439 | touchRes=76758(eff=53766,ineff=22992) resetRes=97856(ineff=69482,eff=28374) | bc++=92474 bc--=82140 inv=1500196
[DSB @ 9200000 calls] bc=0 isBypassOn=true| real=2478661 virt=839290 notrack=5882048 | touchRes=77559(eff=54328,ineff=23231) resetRes=98927(ineff=70250,eff=28677) | bc++=93481 bc--=83005 inv=1516471
[DSB @ 9300000 calls] bc=12 isBypassOn=false| real=2514192 virt=847248 notrack=5938559 | touchRes=78435(eff=55002,ineff=23433) resetRes=100247(ineff=71290,eff=28957) | bc++=94723 bc--=83959 inv=1535122
[DSB @ 9400000 calls] bc=8 isBypassOn=true| real=2549099 virt=855479 notrack=5995421 | touchRes=79373(eff=55718,ineff=23655) resetRes=101618(ineff=72310,eff=29308) | bc++=95965 bc--=85026 inv=1553382
[DSB @ 9500000 calls] bc=0 isBypassOn=true| real=2580384 virt=864037 notrack=6055578 | touchRes=80103(eff=56227,ineff=23876) resetRes=102060(ineff=72512,eff=29548) | bc++=96388 bc--=85775 inv=1563356
[DSB @ 9600000 calls] bc=0 isBypassOn=true| real=2680384 virt=864037 notrack=6055578 | touchRes=80103(eff=56227,ineff=23876) resetRes=102060(ineff=72512,eff=29548) | bc++=96388 bc--=85775 inv=1563356
[DSB @ 9700000 calls] bc=0 isBypassOn=true| real=2780384 virt=864037 notrack=6055578 | touchRes=80103(eff=56227,ineff=23876) resetRes=102060(ineff=72512,eff=29548) | bc++=96388 bc--=85775 inv=1563356
[DSB @ 9800000 calls] bc=0 isBypassOn=true| real=2880384 virt=864037 notrack=6055578 | touchRes=80103(eff=56227,ineff=23876) resetRes=102060(ineff=72512,eff=29548) | bc++=96388 bc--=85775 inv=1563356
[DSB @ 9900000 calls] bc=0 isBypassOn=true| real=2980384 virt=864037 notrack=6055578 | touchRes=80103(eff=56227,ineff=23876) resetRes=102060(ineff=72512,eff=29548) | bc++=96388 bc--=85775 inv=1563356
[DSB @ 10000000 calls] bc=0 isBypassOn=true| real=3080384 virt=864037 notrack=6055578 | touchRes=80103(eff=56227,ineff=23876) resetRes=102060(ineff=72512,eff=29548) | bc++=96388 bc--=85775 inv=1563356
[DSB @ 10100000 calls] bc=0 isBypassOn=true| real=3180384 virt=864037 notrack=6055578 | touchRes=80103(eff=56227,ineff=23876) resetRes=102060(ineff=72512,eff=29548) | bc++=96388 bc--=85775 inv=1563356
[DSB @ 10200000 calls] bc=0 isBypassOn=true| real=3280384 virt=864037 notrack=6055578 | touchRes=80103(eff=56227,ineff=23876) resetRes=102060(ineff=72512,eff=29548) | bc++=96388 bc--=85775 inv=1563356
[DSB @ 10300000 calls] bc=0 isBypassOn=true| real=3380384 virt=864037 notrack=6055578 | touchRes=80103(eff=56227,ineff=23876) resetRes=102060(ineff=72512,eff=29548) | bc++=96388 bc--=85775 inv=1563356
[DSB @ 10400000 calls] bc=0 isBypassOn=true| real=3480384 virt=864037 notrack=6055578 | touchRes=80103(eff=56227,ineff=23876) resetRes=102060(ineff=72512,eff=29548) | bc++=96388 bc--=85775 inv=1563356
[DSB @ 10500000 calls] bc=0 isBypassOn=true| real=3580384 virt=864037 notrack=6055578 | touchRes=80103(eff=56227,ineff=23876) resetRes=102060(ineff=72512,eff=29548) | bc++=96388 bc--=85775 inv=1563356
[DSB @ 10600000 calls] bc=0 isBypassOn=true| real=3680384 virt=864037 notrack=6055578 | touchRes=80103(eff=56227,ineff=23876) resetRes=102060(ineff=72512,eff=29548) | bc++=96388 bc--=85775 inv=1563356
[DSB @ 10700000 calls] bc=0 isBypassOn=true| real=3780384 virt=864037 notrack=6055578 | touchRes=80103(eff=56227,ineff=23876) resetRes=102060(ineff=72512,eff=29548) | bc++=96388 bc--=85775 inv=1563356
[DSB @ 10800000 calls] bc=0 isBypassOn=true| real=3880384 virt=864037 notrack=6055578 | touchRes=80103(eff=56227,ineff=23876) resetRes=102060(ineff=72512,eff=29548) | bc++=96388 bc--=85775 inv=1563356
[DSB @ 10900000 calls] bc=0 isBypassOn=true| real=3980384 virt=864037 notrack=6055578 | touchRes=80103(eff=56227,ineff=23876) resetRes=102060(ineff=72512,eff=29548) | bc++=96388 bc--=85775 inv=1563356
[DSB @ 11000000 calls] bc=0 isBypassOn=true| real=4080384 virt=864037 notrack=6055578 | touchRes=80103(eff=56227,ineff=23876) resetRes=102060(ineff=72512,eff=29548) | bc++=96388 bc--=85775 inv=1563356
[DSB @ 11100000 calls] bc=0 isBypassOn=true| real=4180384 virt=864037 notrack=6055578 | touchRes=80103(eff=56227,ineff=23876) resetRes=102060(ineff=72512,eff=29548) | bc++=96388 bc--=85775 inv=1563356
[DSB @ 11200000 calls] bc=0 isBypassOn=true| real=4280384 virt=864037 notrack=6055578 | touchRes=80103(eff=56227,ineff=23876) resetRes=102060(ineff=72512,eff=29548) | bc++=96388 bc--=85775 inv=1563356
[DSB @ 11300000 calls] bc=0 isBypassOn=true| real=4380384 virt=864037 notrack=6055578 | touchRes=80103(eff=56227,ineff=23876) resetRes=102060(ineff=72512,eff=29548) | bc++=96388 bc--=85775 inv=1563356
[DSB @ 11400000 calls] bc=0 isBypassOn=true| real=4480384 virt=864037 notrack=6055578 | touchRes=80103(eff=56227,ineff=23876) resetRes=102060(ineff=72512,eff=29548) | bc++=96388 bc--=85775 inv=1563356
[DSB @ 11500000 calls] bc=0 isBypassOn=true| real=4580384 virt=864037 notrack=6055578 | touchRes=80103(eff=56227,ineff=23876) resetRes=102060(ineff=72512,eff=29548) | bc++=96388 bc--=85775 inv=1563356
[DSB @ 11600000 calls] bc=0 isBypassOn=true| real=4680384 virt=864037 notrack=6055578 | touchRes=80103(eff=56227,ineff=23876) resetRes=102060(ineff=72512,eff=29548) | bc++=96388 bc--=85775 inv=1563356
[DSB @ 11700000 calls] bc=0 isBypassOn=true| real=4780384 virt=864037 notrack=6055578 | touchRes=80103(eff=56227,ineff=23876) resetRes=102060(ineff=72512,eff=29548) | bc++=96388 bc--=85775 inv=1563356
[DSB @ 11800000 calls] bc=0 isBypassOn=true| real=4880384 virt=864037 notrack=6055578 | touchRes=80103(eff=56227,ineff=23876) resetRes=102060(ineff=72512,eff=29548) | bc++=96388 bc--=85775 inv=1563356
[DSB @ 11900000 calls] bc=0 isBypassOn=true| real=4979407 virt=864165 notrack=6056427 | touchRes=80497(eff=56621,ineff=23876) resetRes=102061(ineff=72513,eff=29548) | bc++=96389 bc--=86169 inv=1564009
[DSB @ 12000000 calls] bc=0 isBypassOn=true| real=5079407 virt=864165 notrack=6056427 | touchRes=80497(eff=56621,ineff=23876) resetRes=102061(ineff=72513,eff=29548) | bc++=96389 bc--=86169 inv=1564009
[DSB @ 12100000 calls] bc=0 isBypassOn=true| real=5179407 virt=864165 notrack=6056427 | touchRes=80497(eff=56621,ineff=23876) resetRes=102061(ineff=72513,eff=29548) | bc++=96389 bc--=86169 inv=1564009
[DSB @ 12200000 calls] bc=0 isBypassOn=true| real=5279407 virt=864165 notrack=6056427 | touchRes=80497(eff=56621,ineff=23876) resetRes=102061(ineff=72513,eff=29548) | bc++=96389 bc--=86169 inv=1564009
[DSB @ 12300000 calls] bc=0 isBypassOn=true| real=5379407 virt=864165 notrack=6056427 | touchRes=80497(eff=56621,ineff=23876) resetRes=102061(ineff=72513,eff=29548) | bc++=96389 bc--=86169 inv=1564009
[DSB @ 12400000 calls] bc=0 isBypassOn=true| real=5479407 virt=864165 notrack=6056427 | touchRes=80497(eff=56621,ineff=23876) resetRes=102061(ineff=72513,eff=29548) | bc++=96389 bc--=86169 inv=1564009
[DSB @ 12500000 calls] bc=0 isBypassOn=true| real=5579407 virt=864165 notrack=6056427 | touchRes=80497(eff=56621,ineff=23876) resetRes=102061(ineff=72513,eff=29548) | bc++=96389 bc--=86169 inv=1564009
[DSB @ 12600000 calls] bc=0 isBypassOn=true| real=5679407 virt=864165 notrack=6056427 | touchRes=80666(eff=56790,ineff=23876) resetRes=102061(ineff=72513,eff=29548) | bc++=96389 bc--=86338 inv=1564009
[DSB @ 12700000 calls] bc=0 isBypassOn=true| real=5779407 virt=864165 notrack=6056427 | touchRes=80666(eff=56790,ineff=23876) resetRes=102061(ineff=72513,eff=29548) | bc++=96389 bc--=86338 inv=1564009
[DSB @ 12800000 calls] bc=0 isBypassOn=true| real=5879407 virt=864165 notrack=6056427 | touchRes=80666(eff=56790,ineff=23876) resetRes=102061(ineff=72513,eff=29548) | bc++=96389 bc--=86338 inv=1564009
[DSB @ 12900000 calls] bc=0 isBypassOn=true| real=5979407 virt=864165 notrack=6056427 | touchRes=80666(eff=56790,ineff=23876) resetRes=102061(ineff=72513,eff=29548) | bc++=96389 bc--=86338 inv=1564009
[DSB @ 13000000 calls] bc=0 isBypassOn=true| real=6079407 virt=864165 notrack=6056427 | touchRes=80666(eff=56790,ineff=23876) resetRes=102061(ineff=72513,eff=29548) | bc++=96389 bc--=86338 inv=1564009
[DSB @ 13100000 calls] bc=0 isBypassOn=true| real=6179407 virt=864165 notrack=6056427 | touchRes=80666(eff=56790,ineff=23876) resetRes=102061(ineff=72513,eff=29548) | bc++=96389 bc--=86338 inv=1564009
[DSB @ 13200000 calls] bc=0 isBypassOn=true| real=6279407 virt=864165 notrack=6056427 | touchRes=80666(eff=56790,ineff=23876) resetRes=102061(ineff=72513,eff=29548) | bc++=96389 bc--=86338 inv=1564009
[DSB @ 13300000 calls] bc=0 isBypassOn=true| real=6379407 virt=864165 notrack=6056427 | touchRes=80666(eff=56790,ineff=23876) resetRes=102061(ineff=72513,eff=29548) | bc++=96389 bc--=86338 inv=1564009
Exiting @ tick 26618726643500 because a thread reached the max instruction count
