warn: The `get_runtime_isa` function is deprecated. Please migrate away from using this function.
warn: The se.py script is deprecated. It will be removed in future releases of  gem5.
warn: The `get_runtime_isa` function is deprecated. Please migrate away from using this function.
Global frequency set at 1000000000000 ticks per second
src/base/statistics.hh:279: warn: One of the stats is a legacy stat. Legacy stat is a stat that does not belong to any statistics::Group. Legacy stat is deprecated.
src/base/remote_gdb.cc:418: warn: Sockets disabled, not accepting gdb connections
src/sim/process.cc:396: warn: Checkpoints for pipes, device drivers and sockets do not work.
gem5 Simulator System.  https://www.gem5.org
gem5 is copyrighted software; use the --copyright option for details.

gem5 version 23.0.0.1
gem5 compiled Apr  6 2026 01:50:35
gem5 started Apr  7 2026 13:01:22
gem5 executing on b49ce2a326be, pid 110467
command line: /opt/gem5/build/X86/gem5.opt --outdir=/workspace/results_l3/4MB/policy1Config1/pop2 /workspace/configs/run_spec_l3.py --rp-type=DSBRP --l3-size=4MB --l3-assoc=16 --cpu-type=DerivO3CPU --cmd=./speed_pop2_base.gem5-x86 --options= --mem-size=8GB --maxinst=250000000 --caches --l2cache --l1d_size=32kB --l1i_size=32kB --l1d_assoc=8 --l1i_assoc=8 --l2_size=256kB --l2_assoc=8 --checkpoint-restore=1 --checkpoint-dir=/workspace/checkpoints/pop2/m5out --restore-with-cpu=AtomicSimpleCPU --standard-switch=1 --warmup-insts=50000000 --dsb-enable-bypass=false --dsb-enable-aging=true --dsb-bypass-counter=6 --dsb-virtual-bypass-counter=4 --dsb-random-promotion=0 --dsb-minimum-bypass-counter=8

info: Standard input is not a terminal, disabling listeners.
Replacement policy: DSBRP
L1I size: 32kB, assoc: 8
L1D size: 32kB, assoc: 8
L2 size: 256kB, assoc: 8
L3 size: 4MB, L3 assoc: 16
Switch at instruction count:1
src/sim/simulate.cc:194: info: Entering event queue @ 28375057083500.  Starting simulation...
src/sim/simulate.cc:194: info: Entering event queue @ 28375057085000.  Starting simulation...
src/sim/power_state.cc:105: warn: PowerState: Already in the requested power state, request ignored
Switched CPUS @ tick 28375057085000
switching cpus
Switch at instruction count:50000000
src/sim/simulate.cc:194: info: Entering event queue @ 28375057086000.  Starting simulation...
[DSB @ 100000 calls] bc=8 isBypassOn=false| real=0 virt=6236 notrack=93763 | touchRes=5949(eff=0,ineff=5949) resetRes=25(ineff=0,eff=25) | bc++=5949 bc--=25 inv=0
src/sim/simulate.cc:194: info: Entering event queue @ 28513767871500.  Starting simulation...
Switching CPUS @ tick 28513767871500
Simulation ends instruction count:250000000
switching cpus
**** REAL SIMULATION ****
src/sim/simulate.cc:194: info: Entering event queue @ 28513767974000.  Starting simulation...
[DSB @ 200000 calls] bc=8 isBypassOn=false| real=0 virt=12491 notrack=187508 | touchRes=12153(eff=0,ineff=12153) resetRes=25(ineff=0,eff=25) | bc++=12153 bc--=25 inv=0
[DSB @ 300000 calls] bc=8 isBypassOn=false| real=0 virt=18730 notrack=281269 | touchRes=18099(eff=0,ineff=18099) resetRes=30(ineff=0,eff=30) | bc++=18099 bc--=30 inv=0
[DSB @ 400000 calls] bc=8 isBypassOn=false| real=0 virt=24896 notrack=375103 | touchRes=23910(eff=0,ineff=23910) resetRes=145(ineff=0,eff=145) | bc++=23910 bc--=145 inv=8
[DSB @ 500000 calls] bc=8 isBypassOn=false| real=0 virt=31106 notrack=468893 | touchRes=29691(eff=0,ineff=29691) resetRes=210(ineff=0,eff=210) | bc++=29691 bc--=210 inv=32
[DSB @ 600000 calls] bc=8 isBypassOn=false| real=0 virt=37337 notrack=562662 | touchRes=35733(eff=0,ineff=35733) resetRes=307(ineff=0,eff=307) | bc++=35733 bc--=307 inv=79
