warn: The `get_runtime_isa` function is deprecated. Please migrate away from using this function.
warn: The se.py script is deprecated. It will be removed in future releases of  gem5.
warn: The `get_runtime_isa` function is deprecated. Please migrate away from using this function.
Global frequency set at 1000000000000 ticks per second
src/base/statistics.hh:279: warn: One of the stats is a legacy stat. Legacy stat is a stat that does not belong to any statistics::Group. Legacy stat is deprecated.
src/base/remote_gdb.cc:418: warn: Sockets disabled, not accepting gdb connections
src/sim/process.cc:396: warn: Checkpoints for pipes, device drivers and sockets do not work.
gem5 Simulator System.  https://www.gem5.org
gem5 is copyrighted software; use the --copyright option for details.

gem5 version 23.0.0.1
gem5 compiled Apr  6 2026 01:50:35
gem5 started Apr  6 2026 12:43:58
gem5 executing on b49ce2a326be, pid 208578
command line: /opt/gem5/build/X86/gem5.opt --outdir=/workspace/results_l3/2MB/policy0Config3/wrf /workspace/configs/run_spec_l3.py --rp-type=DSBRP --l3-size=2MB --l3-assoc=16 --cpu-type=DerivO3CPU --cmd=./wrf_s_base.gem5-x86 --options= --mem-size=8GB --maxinst=250000000 --caches --l2cache --l1d_size=32kB --l1i_size=32kB --l1d_assoc=8 --l1i_assoc=8 --l2_size=256kB --l2_assoc=8 --checkpoint-restore=1 --checkpoint-dir=/workspace/checkpoints/wrf/m5out --restore-with-cpu=AtomicSimpleCPU --standard-switch=1 --warmup-insts=50000000 --dsb-enable-bypass=true --dsb-enable-aging=false --dsb-bypass-counter=3 --dsb-virtual-bypass-counter=3 --dsb-random-promotion=0 --dsb-minimum-bypass-counter=12

info: Standard input is not a terminal, disabling listeners.
Replacement policy: DSBRP
L1I size: 32kB, assoc: 8
L1D size: 32kB, assoc: 8
L2 size: 256kB, assoc: 8
L3 size: 2MB, L3 assoc: 16
Switch at instruction count:1
src/sim/simulate.cc:194: info: Entering event queue @ 27778733914000.  Starting simulation...
src/sim/simulate.cc:194: info: Entering event queue @ 27778733915500.  Starting simulation...
src/sim/power_state.cc:105: warn: PowerState: Already in the requested power state, request ignored
Switched CPUS @ tick 27778733915500
switching cpus
Switch at instruction count:50000000
src/sim/simulate.cc:194: info: Entering event queue @ 27778733916000.  Starting simulation...
[DSB @ 100000 calls] bc=0 isBypassOn=true| real=16128 virt=10446 notrack=73425 | touchRes=7063(eff=3849,ineff=3214) resetRes=590(ineff=123,eff=467) | bc++=3337 bc--=4316 inv=6034
[DSB @ 200000 calls] bc=0 isBypassOn=true| real=89159 virt=13784 notrack=97056 | touchRes=13526(eff=10147,ineff=3379) resetRes=1898(ineff=1242,eff=656) | bc++=4621 bc--=10803 inv=15436
[DSB @ 300000 calls] bc=10 isBypassOn=true| real=164082 virt=16989 notrack=118928 | touchRes=20214(eff=16743,ineff=3471) resetRes=2448(ineff=1637,eff=811) | bc++=5108 bc--=17554 inv=28855
[DSB @ 400000 calls] bc=0 isBypassOn=true| real=225238 virt=21798 notrack=152963 | touchRes=26487(eff=22898,ineff=3589) resetRes=3884(ineff=2774,eff=1110) | bc++=6363 bc--=24008 inv=40036
[DSB @ 500000 calls] bc=8 isBypassOn=true| real=264550 virt=29345 notrack=206104 | touchRes=31127(eff=27527,ineff=3600) resetRes=4408(ineff=3123,eff=1285) | bc++=6723 bc--=28812 inv=52430
[DSB @ 600000 calls] bc=0 isBypassOn=true| real=327996 virt=33940 notrack=238063 | touchRes=39915(eff=36008,ineff=3907) resetRes=5336(ineff=3884,eff=1452) | bc++=7791 bc--=37460 inv=64213
[DSB @ 700000 calls] bc=0 isBypassOn=true| real=377321 virt=40222 notrack=282456 | touchRes=47762(eff=43146,ineff=4616) resetRes=7459(ineff=5422,eff=2037) | bc++=10038 bc--=45183 inv=77704
src/sim/simulate.cc:194: info: Entering event queue @ 27938619645500.  Starting simulation...
Switching CPUS @ tick 27938619645500
Simulation ends instruction count:250000000
switching cpus
**** REAL SIMULATION ****
src/sim/simulate.cc:194: info: Entering event queue @ 27938619828000.  Starting simulation...
[DSB @ 800000 calls] bc=0 isBypassOn=true| real=447296 virt=43878 notrack=308825 | touchRes=54616(eff=49545,ineff=5071) resetRes=9725(ineff=7309,eff=2416) | bc++=12380 bc--=51961 inv=87902
[DSB @ 900000 calls] bc=0 isBypassOn=true| real=516520 virt=47731 notrack=335748 | touchRes=65383(eff=59664,ineff=5719) resetRes=11469(ineff=8572,eff=2897) | bc++=14291 bc--=62561 inv=99282
[DSB @ 1000000 calls] bc=0 isBypassOn=true| real=591273 virt=50899 notrack=357827 | touchRes=72315(eff=66215,ineff=6100) resetRes=13938(ineff=10601,eff=3337) | bc++=16701 bc--=69552 inv=107115
[DSB @ 1100000 calls] bc=12 isBypassOn=false| real=648210 virt=56287 notrack=395502 | touchRes=80650(eff=73630,ineff=7020) resetRes=16240(ineff=12287,eff=3953) | bc++=19307 bc--=77583 inv=118247
[DSB @ 1200000 calls] bc=0 isBypassOn=true| real=739736 virt=57318 notrack=402945 | touchRes=85024(eff=77704,ineff=7320) resetRes=16390(ineff=12392,eff=3998) | bc++=19712 bc--=81702 inv=122278
[DSB @ 1300000 calls] bc=0 isBypassOn=true| real=804974 virt=61726 notrack=433299 | touchRes=93200(eff=85396,ineff=7804) resetRes=18057(ineff=13514,eff=4543) | bc++=21318 bc--=89939 inv=132676
[DSB @ 1400000 calls] bc=0 isBypassOn=true| real=885371 virt=64239 notrack=450389 | touchRes=101232(eff=92929,ineff=8303) resetRes=18885(ineff=14104,eff=4781) | bc++=22407 bc--=97710 inv=141098
[DSB @ 1500000 calls] bc=12 isBypassOn=false| real=925772 virt=71646 notrack=502581 | touchRes=107286(eff=98377,ineff=8909) resetRes=20365(ineff=15225,eff=5140) | bc++=24134 bc--=103517 inv=153676
[DSB @ 1600000 calls] bc=0 isBypassOn=true| real=977533 virt=77635 notrack=544831 | touchRes=112067(eff=102731,ineff=9336) resetRes=21479(ineff=15982,eff=5497) | bc++=25318 bc--=108228 inv=165222
[DSB @ 1700000 calls] bc=6 isBypassOn=true| real=1051760 virt=80898 notrack=567341 | touchRes=117492(eff=108133,ineff=9359) resetRes=21916(ineff=16343,eff=5573) | bc++=25702 bc--=113706 inv=175992
[DSB @ 1800000 calls] bc=0 isBypassOn=true| real=1116114 virt=85418 notrack=598467 | touchRes=127400(eff=117661,ineff=9739) resetRes=23395(ineff=17456,eff=5939) | bc++=27195 bc--=123600 inv=188291
[DSB @ 1900000 calls] bc=0 isBypassOn=true| real=1163102 virt=92141 notrack=644756 | touchRes=134550(eff=123783,ineff=10767) resetRes=24446(ineff=18162,eff=6284) | bc++=28929 bc--=130067 inv=197771
[DSB @ 2000000 calls] bc=0 isBypassOn=true| real=1225208 virt=96868 notrack=677923 | touchRes=137858(eff=126988,ineff=10870) resetRes=25594(ineff=19063,eff=6531) | bc++=29933 bc--=133519 inv=209349
[DSB @ 2100000 calls] bc=0 isBypassOn=true| real=1325208 virt=96868 notrack=677923 | touchRes=137858(eff=126988,ineff=10870) resetRes=25594(ineff=19063,eff=6531) | bc++=29933 bc--=133519 inv=209349
[DSB @ 2200000 calls] bc=0 isBypassOn=true| real=1408720 virt=98931 notrack=692348 | touchRes=142236(eff=131294,ineff=10942) resetRes=25959(ineff=19338,eff=6621) | bc++=30280 bc--=137915 inv=216422
[DSB @ 2300000 calls] bc=0 isBypassOn=true| real=1466873 virt=104217 notrack=728909 | touchRes=152871(eff=141521,ineff=11350) resetRes=27733(ineff=20691,eff=7042) | bc++=32041 bc--=148563 inv=230489
[DSB @ 2400000 calls] bc=0 isBypassOn=true| real=1522730 virt=109736 notrack=767533 | touchRes=163551(eff=151812,ineff=11739) resetRes=29717(ineff=22325,eff=7392) | bc++=34064 bc--=159204 inv=245149
[DSB @ 2500000 calls] bc=12 isBypassOn=false| real=1590056 virt=113735 notrack=796208 | touchRes=172321(eff=160283,ineff=12038) resetRes=31863(ineff=24177,eff=7686) | bc++=36215 bc--=167969 inv=257844
[DSB @ 2600000 calls] bc=12 isBypassOn=false| real=1620140 virt=122305 notrack=857554 | touchRes=179797(eff=165892,ineff=13905) resetRes=33333(ineff=25369,eff=7964) | bc++=39274 bc--=173856 inv=269182
[DSB @ 2700000 calls] bc=2 isBypassOn=true| real=1669940 virt=128572 notrack=901487 | touchRes=188195(eff=173666,ineff=14529) resetRes=34291(ineff=26050,eff=8241) | bc++=40579 bc--=181907 inv=281819
Exiting @ tick 28098370369000 because a thread reached the max instruction count
