warn: The `get_runtime_isa` function is deprecated. Please migrate away from using this function.
warn: The se.py script is deprecated. It will be removed in future releases of  gem5.
warn: The `get_runtime_isa` function is deprecated. Please migrate away from using this function.
Global frequency set at 1000000000000 ticks per second
src/base/statistics.hh:279: warn: One of the stats is a legacy stat. Legacy stat is a stat that does not belong to any statistics::Group. Legacy stat is deprecated.
src/base/remote_gdb.cc:418: warn: Sockets disabled, not accepting gdb connections
src/sim/process.cc:396: warn: Checkpoints for pipes, device drivers and sockets do not work.
gem5 Simulator System.  https://www.gem5.org
gem5 is copyrighted software; use the --copyright option for details.

gem5 version 23.0.0.1
gem5 compiled Apr  6 2026 01:50:35
gem5 started Apr  6 2026 04:10:47
gem5 executing on b49ce2a326be, pid 120408
command line: /opt/gem5/build/X86/gem5.opt --outdir=/workspace/results_l3/1MB/policy0Config2/pop2 /workspace/configs/run_spec_l3.py --rp-type=DSBRP --l3-size=1MB --l3-assoc=16 --cpu-type=DerivO3CPU --cmd=./speed_pop2_base.gem5-x86 --options= --mem-size=8GB --maxinst=250000000 --caches --l2cache --l1d_size=32kB --l1i_size=32kB --l1d_assoc=8 --l1i_assoc=8 --l2_size=256kB --l2_assoc=8 --checkpoint-restore=1 --checkpoint-dir=/workspace/checkpoints/pop2/m5out --restore-with-cpu=AtomicSimpleCPU --standard-switch=1 --warmup-insts=50000000 --dsb-enable-bypass=true --dsb-enable-aging=false --dsb-bypass-counter=6 --dsb-virtual-bypass-counter=3 --dsb-random-promotion=0 --dsb-minimum-bypass-counter=12

info: Standard input is not a terminal, disabling listeners.
Replacement policy: DSBRP
L1I size: 32kB, assoc: 8
L1D size: 32kB, assoc: 8
L2 size: 256kB, assoc: 8
L3 size: 1MB, L3 assoc: 16
Switch at instruction count:1
src/sim/simulate.cc:194: info: Entering event queue @ 28375057083500.  Starting simulation...
src/sim/simulate.cc:194: info: Entering event queue @ 28375057085000.  Starting simulation...
src/sim/power_state.cc:105: warn: PowerState: Already in the requested power state, request ignored
Switched CPUS @ tick 28375057085000
switching cpus
Switch at instruction count:50000000
src/sim/simulate.cc:194: info: Entering event queue @ 28375057086000.  Starting simulation...
[DSB @ 100000 calls] bc=0 isBypassOn=true| real=51581 virt=5998 notrack=42420 | touchRes=6522(eff=5081,ineff=1441) resetRes=972(ineff=748,eff=224) | bc++=2189 bc--=5305 inv=8365
[DSB @ 200000 calls] bc=1 isBypassOn=true| real=105616 virt=11734 notrack=82649 | touchRes=13683(eff=11783,ineff=1900) resetRes=2613(ineff=2142,eff=471) | bc++=4042 bc--=12254 inv=20882
[DSB @ 300000 calls] bc=8 isBypassOn=true| real=129269 virt=21354 notrack=149376 | touchRes=19183(eff=16180,ineff=3003) resetRes=4335(ineff=3285,eff=1050) | bc++=6288 bc--=17230 inv=32737
src/sim/simulate.cc:194: info: Entering event queue @ 28523396653500.  Starting simulation...
Switching CPUS @ tick 28523396653500
Simulation ends instruction count:250000000
switching cpus
**** REAL SIMULATION ****
src/sim/simulate.cc:194: info: Entering event queue @ 28523396807250.  Starting simulation...
[DSB @ 400000 calls] bc=12 isBypassOn=false| real=145869 virt=31830 notrack=222300 | touchRes=23594(eff=19179,ineff=4415) resetRes=6000(ineff=4352,eff=1648) | bc++=8767 bc--=20827 inv=43305
[DSB @ 500000 calls] bc=8 isBypassOn=true| real=155640 virt=43203 notrack=301156 | touchRes=27288(eff=21163,ineff=6125) resetRes=7336(ineff=4937,eff=2399) | bc++=11062 bc--=23562 inv=53223
[DSB @ 600000 calls] bc=0 isBypassOn=true| real=205318 virt=49533 notrack=345148 | touchRes=31477(eff=24633,ineff=6844) resetRes=8826(ineff=6103,eff=2723) | bc++=12947 bc--=27356 inv=60780
[DSB @ 700000 calls] bc=1 isBypassOn=true| real=267234 virt=54351 notrack=378414 | touchRes=32674(eff=25821,ineff=6853) resetRes=9131(ineff=6390,eff=2741) | bc++=13243 bc--=28562 inv=68073
[DSB @ 800000 calls] bc=9 isBypassOn=true| real=307640 virt=61741 notrack=430618 | touchRes=33889(eff=27023,ineff=6866) resetRes=9298(ineff=6552,eff=2746) | bc++=13418 bc--=29769 inv=76168
[DSB @ 900000 calls] bc=3 isBypassOn=true| real=345798 virt=69439 notrack=484762 | touchRes=35810(eff=28917,ineff=6893) resetRes=9518(ineff=6707,eff=2811) | bc++=13600 bc--=31728 inv=87218
[DSB @ 1000000 calls] bc=0 isBypassOn=true| real=367401 virt=79550 notrack=553048 | touchRes=37536(eff=30598,ineff=6938) resetRes=9682(ineff=6797,eff=2885) | bc++=13735 bc--=33483 inv=99193
[DSB @ 1100000 calls] bc=0 isBypassOn=true| real=462880 virt=80104 notrack=557015 | touchRes=39188(eff=32250,ineff=6938) resetRes=9684(ineff=6799,eff=2885) | bc++=13737 bc--=35135 inv=101804
[DSB @ 1200000 calls] bc=0 isBypassOn=true| real=554699 virt=81147 notrack=564153 | touchRes=40553(eff=33606,ineff=6947) resetRes=9705(ineff=6808,eff=2897) | bc++=13755 bc--=36503 inv=104683
[DSB @ 1300000 calls] bc=3 isBypassOn=true| real=599593 virt=88105 notrack=612301 | touchRes=40657(eff=33698,ineff=6959) resetRes=9770(ineff=6858,eff=2912) | bc++=13817 bc--=36610 inv=114173
[DSB @ 1400000 calls] bc=0 isBypassOn=true| real=644410 virt=94893 notrack=660696 | touchRes=45939(eff=38687,ineff=7252) resetRes=10594(ineff=7434,eff=3160) | bc++=14686 bc--=41847 inv=125876
[DSB @ 1500000 calls] bc=9 isBypassOn=true| real=677068 virt=103232 notrack=719699 | touchRes=52214(eff=44125,ineff=8089) resetRes=12370(ineff=8733,eff=3637) | bc++=16822 bc--=47762 inv=137987
[DSB @ 1600000 calls] bc=12 isBypassOn=false| real=708214 virt=111900 notrack=779885 | touchRes=59281(eff=50003,ineff=9278) resetRes=14509(ineff=10254,eff=4255) | bc++=19532 bc--=54258 inv=149866
[DSB @ 1700000 calls] bc=12 isBypassOn=false| real=734194 virt=121134 notrack=844671 | touchRes=65212(eff=54441,ineff=10771) resetRes=16630(ineff=11760,eff=4870) | bc++=22531 bc--=59311 inv=160964
[DSB @ 1800000 calls] bc=1 isBypassOn=true| real=753724 virt=131123 notrack=915152 | touchRes=70778(eff=58474,ineff=12304) resetRes=18761(ineff=13169,eff=5592) | bc++=25473 bc--=64066 inv=171502
[DSB @ 1900000 calls] bc=0 isBypassOn=true| real=771345 virt=141327 notrack=987327 | touchRes=72131(eff=59703,ineff=12428) resetRes=19926(ineff=14186,eff=5740) | bc++=26614 bc--=65443 inv=183409
[DSB @ 2000000 calls] bc=0 isBypassOn=true| real=859374 virt=142797 notrack=997828 | touchRes=74340(eff=61899,ineff=12441) resetRes=19966(ineff=14215,eff=5751) | bc++=26656 bc--=67650 inv=186376
[DSB @ 2100000 calls] bc=12 isBypassOn=true| real=863458 virt=154911 notrack=1081630 | touchRes=74354(eff=61901,ineff=12453) resetRes=20133(ineff=14379,eff=5754) | bc++=26832 bc--=67655 inv=197567
[DSB @ 2200000 calls] bc=0 isBypassOn=true| real=923338 virt=159884 notrack=1116777 | touchRes=76618(eff=64142,ineff=12476) resetRes=20320(ineff=14497,eff=5823) | bc++=26973 bc--=69965 inv=207081
Exiting @ tick 28704644527000 because a thread reached the max instruction count
