warn: The `get_runtime_isa` function is deprecated. Please migrate away from using this function.
warn: The se.py script is deprecated. It will be removed in future releases of  gem5.
warn: The `get_runtime_isa` function is deprecated. Please migrate away from using this function.
Global frequency set at 1000000000000 ticks per second
src/base/statistics.hh:279: warn: One of the stats is a legacy stat. Legacy stat is a stat that does not belong to any statistics::Group. Legacy stat is deprecated.
src/base/remote_gdb.cc:418: warn: Sockets disabled, not accepting gdb connections
src/sim/process.cc:396: warn: Checkpoints for pipes, device drivers and sockets do not work.
gem5 Simulator System.  https://www.gem5.org
gem5 is copyrighted software; use the --copyright option for details.

gem5 version 23.0.0.1
gem5 compiled Apr  6 2026 01:50:35
gem5 started Apr  6 2026 16:44:07
gem5 executing on b49ce2a326be, pid 253236
command line: /opt/gem5/build/X86/gem5.opt --outdir=/workspace/results_l3/2MB/policy1Config3/pop2 /workspace/configs/run_spec_l3.py --rp-type=DSBRP --l3-size=2MB --l3-assoc=16 --cpu-type=DerivO3CPU --cmd=./speed_pop2_base.gem5-x86 --options= --mem-size=8GB --maxinst=250000000 --caches --l2cache --l1d_size=32kB --l1i_size=32kB --l1d_assoc=8 --l1i_assoc=8 --l2_size=256kB --l2_assoc=8 --checkpoint-restore=1 --checkpoint-dir=/workspace/checkpoints/pop2/m5out --restore-with-cpu=AtomicSimpleCPU --standard-switch=1 --warmup-insts=50000000 --dsb-enable-bypass=true --dsb-enable-aging=true --dsb-bypass-counter=3 --dsb-virtual-bypass-counter=3 --dsb-random-promotion=4 --dsb-minimum-bypass-counter=12

info: Standard input is not a terminal, disabling listeners.
Replacement policy: DSBRP
L1I size: 32kB, assoc: 8
L1D size: 32kB, assoc: 8
L2 size: 256kB, assoc: 8
L3 size: 2MB, L3 assoc: 16
Switch at instruction count:1
src/sim/simulate.cc:194: info: Entering event queue @ 28375057083500.  Starting simulation...
src/sim/simulate.cc:194: info: Entering event queue @ 28375057085000.  Starting simulation...
src/sim/power_state.cc:105: warn: PowerState: Already in the requested power state, request ignored
Switched CPUS @ tick 28375057085000
switching cpus
Switch at instruction count:50000000
src/sim/simulate.cc:194: info: Entering event queue @ 28375057086000.  Starting simulation...
[DSB @ 100000 calls] bc=12 isBypassOn=false| real=309 virt=12362 notrack=87328 | touchRes=10945(eff=184,ineff=10761) resetRes=33(ineff=22,eff=11) | bc++=10783 bc--=195 inv=0
src/sim/simulate.cc:194: info: Entering event queue @ 28514093310500.  Starting simulation...
Switching CPUS @ tick 28514093310500
Simulation ends instruction count:250000000
switching cpus
**** REAL SIMULATION ****
src/sim/simulate.cc:194: info: Entering event queue @ 28514093463000.  Starting simulation...
[DSB @ 200000 calls] bc=12 isBypassOn=false| real=309 virt=24744 notrack=174946 | touchRes=22357(eff=184,ineff=22173) resetRes=37(ineff=22,eff=15) | bc++=22195 bc--=199 inv=4
[DSB @ 300000 calls] bc=12 isBypassOn=false| real=309 virt=37267 notrack=262423 | touchRes=33455(eff=184,ineff=33271) resetRes=52(ineff=22,eff=30) | bc++=33293 bc--=214 inv=10
[DSB @ 400000 calls] bc=12 isBypassOn=false| real=313 virt=49734 notrack=349952 | touchRes=44067(eff=184,ineff=43883) resetRes=344(ineff=22,eff=322) | bc++=43905 bc--=506 inv=74
[DSB @ 500000 calls] bc=12 isBypassOn=false| real=1346 virt=61924 notrack=436729 | touchRes=53800(eff=258,ineff=53542) resetRes=514(ineff=27,eff=487) | bc++=53569 bc--=745 inv=868
[DSB @ 600000 calls] bc=12 isBypassOn=false| real=1350 virt=74426 notrack=524223 | touchRes=64117(eff=258,ineff=63859) resetRes=905(ineff=27,eff=878) | bc++=63886 bc--=1136 inv=991
[DSB @ 700000 calls] bc=12 isBypassOn=false| real=1353 virt=86915 notrack=611731 | touchRes=73625(eff=258,ineff=73367) resetRes=1437(ineff=27,eff=1410) | bc++=73394 bc--=1668 inv=1212
[DSB @ 800000 calls] bc=12 isBypassOn=false| real=1353 virt=99594 notrack=699052 | touchRes=85511(eff=258,ineff=85253) resetRes=1455(ineff=27,eff=1428) | bc++=85280 bc--=1686 inv=1230
[DSB @ 900000 calls] bc=12 isBypassOn=false| real=1353 virt=112204 notrack=786442 | touchRes=97073(eff=258,ineff=96815) resetRes=1473(ineff=27,eff=1446) | bc++=96842 bc--=1704 inv=1238
[DSB @ 1000000 calls] bc=12 isBypassOn=false| real=1355 virt=124634 notrack=874010 | touchRes=107515(eff=258,ineff=107257) resetRes=1651(ineff=27,eff=1624) | bc++=107284 bc--=1882 inv=1304
[DSB @ 1100000 calls] bc=12 isBypassOn=false| real=3404 virt=136969 notrack=959626 | touchRes=117677(eff=626,ineff=117051) resetRes=2192(ineff=198,eff=1994) | bc++=117249 bc--=2620 inv=2552
Exiting @ tick 28683163370500 because a thread reached the max instruction count
