warn: The `get_runtime_isa` function is deprecated. Please migrate away from using this function.
warn: The se.py script is deprecated. It will be removed in future releases of  gem5.
warn: The `get_runtime_isa` function is deprecated. Please migrate away from using this function.
Global frequency set at 1000000000000 ticks per second
src/base/statistics.hh:279: warn: One of the stats is a legacy stat. Legacy stat is a stat that does not belong to any statistics::Group. Legacy stat is deprecated.
src/base/remote_gdb.cc:418: warn: Sockets disabled, not accepting gdb connections
src/sim/process.cc:396: warn: Checkpoints for pipes, device drivers and sockets do not work.
gem5 Simulator System.  https://www.gem5.org
gem5 is copyrighted software; use the --copyright option for details.

gem5 version 23.0.0.1
gem5 compiled Apr  6 2026 01:50:35
gem5 started Apr  6 2026 13:20:12
gem5 executing on b49ce2a326be, pid 215946
command line: /opt/gem5/build/X86/gem5.opt --outdir=/workspace/results_l3/2MB/policy1Config1/mcf /workspace/configs/run_spec_l3.py --rp-type=DSBRP --l3-size=2MB --l3-assoc=16 --cpu-type=DerivO3CPU --cmd=./mcf_s_base.gem5-x86 --options=inp.in --mem-size=8GB --maxinst=250000000 --caches --l2cache --l1d_size=32kB --l1i_size=32kB --l1d_assoc=8 --l1i_assoc=8 --l2_size=256kB --l2_assoc=8 --checkpoint-restore=1 --checkpoint-dir=/workspace/checkpoints/mcf/m5out --restore-with-cpu=AtomicSimpleCPU --standard-switch=1 --warmup-insts=50000000 --dsb-enable-bypass=false --dsb-enable-aging=true --dsb-bypass-counter=6 --dsb-virtual-bypass-counter=4 --dsb-random-promotion=0 --dsb-minimum-bypass-counter=8

info: Standard input is not a terminal, disabling listeners.
Replacement policy: DSBRP
L1I size: 32kB, assoc: 8
L1D size: 32kB, assoc: 8
L2 size: 256kB, assoc: 8
L3 size: 2MB, L3 assoc: 16
Switch at instruction count:1
src/sim/simulate.cc:194: info: Entering event queue @ 24065090964500.  Starting simulation...
src/sim/simulate.cc:194: info: Entering event queue @ 24065090965500.  Starting simulation...
src/sim/power_state.cc:105: warn: PowerState: Already in the requested power state, request ignored
Switched CPUS @ tick 24065090965500
switching cpus
Switch at instruction count:50000000
src/sim/simulate.cc:194: info: Entering event queue @ 24065090966000.  Starting simulation...
[DSB @ 100000 calls] bc=8 isBypassOn=false| real=0 virt=6236 notrack=93763 | touchRes=5752(eff=0,ineff=5752) resetRes=43(ineff=0,eff=43) | bc++=5752 bc--=43 inv=5
[DSB @ 200000 calls] bc=8 isBypassOn=true| real=0 virt=12537 notrack=187462 | touchRes=11758(eff=0,ineff=11758) resetRes=130(ineff=0,eff=130) | bc++=11758 bc--=130 inv=35
[DSB @ 300000 calls] bc=8 isBypassOn=false| real=0 virt=18724 notrack=281275 | touchRes=17481(eff=0,ineff=17481) resetRes=207(ineff=0,eff=207) | bc++=17481 bc--=207 inv=87
src/sim/simulate.cc:194: info: Entering event queue @ 24215666174500.  Starting simulation...
Switching CPUS @ tick 24215666174500
Simulation ends instruction count:250000000
switching cpus
**** REAL SIMULATION ****
src/sim/simulate.cc:194: info: Entering event queue @ 24215666372000.  Starting simulation...
[DSB @ 400000 calls] bc=8 isBypassOn=false| real=0 virt=24978 notrack=375021 | touchRes=23357(eff=0,ineff=23357) resetRes=288(ineff=0,eff=288) | bc++=23357 bc--=288 inv=164
[DSB @ 500000 calls] bc=8 isBypassOn=false| real=0 virt=31295 notrack=468704 | touchRes=29347(eff=0,ineff=29347) resetRes=354(ineff=0,eff=354) | bc++=29347 bc--=354 inv=242
[DSB @ 600000 calls] bc=8 isBypassOn=false| real=0 virt=37450 notrack=562549 | touchRes=34977(eff=0,ineff=34977) resetRes=445(ineff=0,eff=445) | bc++=34977 bc--=445 inv=313
[DSB @ 700000 calls] bc=8 isBypassOn=false| real=0 virt=43758 notrack=656241 | touchRes=40850(eff=0,ineff=40850) resetRes=529(ineff=0,eff=529) | bc++=40850 bc--=529 inv=403
[DSB @ 800000 calls] bc=8 isBypassOn=false| real=0 virt=49976 notrack=750023 | touchRes=46680(eff=0,ineff=46680) resetRes=627(ineff=0,eff=627) | bc++=46680 bc--=627 inv=483
[DSB @ 900000 calls] bc=8 isBypassOn=false| real=0 virt=56214 notrack=843785 | touchRes=52486(eff=0,ineff=52486) resetRes=695(ineff=0,eff=695) | bc++=52486 bc--=695 inv=573
[DSB @ 1000000 calls] bc=8 isBypassOn=false| real=0 virt=62436 notrack=937563 | touchRes=58288(eff=0,ineff=58288) resetRes=763(ineff=0,eff=763) | bc++=58288 bc--=763 inv=663
[DSB @ 1100000 calls] bc=8 isBypassOn=false| real=0 virt=68806 notrack=1031193 | touchRes=64287(eff=0,ineff=64287) resetRes=841(ineff=0,eff=841) | bc++=64287 bc--=841 inv=760
[DSB @ 1200000 calls] bc=8 isBypassOn=false| real=0 virt=75037 notrack=1124962 | touchRes=70010(eff=0,ineff=70010) resetRes=921(ineff=0,eff=921) | bc++=70010 bc--=921 inv=853
[DSB @ 1300000 calls] bc=8 isBypassOn=false| real=0 virt=81283 notrack=1218716 | touchRes=75870(eff=0,ineff=75870) resetRes=1006(ineff=0,eff=1006) | bc++=75870 bc--=1006 inv=913
[DSB @ 1400000 calls] bc=8 isBypassOn=false| real=0 virt=87471 notrack=1312528 | touchRes=81677(eff=0,ineff=81677) resetRes=1093(ineff=0,eff=1093) | bc++=81677 bc--=1093 inv=998
[DSB @ 1500000 calls] bc=8 isBypassOn=false| real=0 virt=93536 notrack=1406463 | touchRes=87325(eff=0,ineff=87325) resetRes=1174(ineff=0,eff=1174) | bc++=87325 bc--=1174 inv=1087
[DSB @ 1600000 calls] bc=8 isBypassOn=false| real=0 virt=99795 notrack=1500204 | touchRes=93180(eff=0,ineff=93180) resetRes=1257(ineff=0,eff=1257) | bc++=93180 bc--=1257 inv=1174
[DSB @ 1700000 calls] bc=8 isBypassOn=false| real=0 virt=105948 notrack=1594051 | touchRes=98972(eff=0,ineff=98972) resetRes=1340(ineff=0,eff=1340) | bc++=98972 bc--=1340 inv=1255
[DSB @ 1800000 calls] bc=8 isBypassOn=false| real=0 virt=112174 notrack=1687825 | touchRes=104714(eff=0,ineff=104714) resetRes=1422(ineff=0,eff=1422) | bc++=104714 bc--=1422 inv=1345
Exiting @ tick 24409770394500 because a thread reached the max instruction count
