warn: The `get_runtime_isa` function is deprecated. Please migrate away from using this function.
warn: The se.py script is deprecated. It will be removed in future releases of  gem5.
warn: The `get_runtime_isa` function is deprecated. Please migrate away from using this function.
Global frequency set at 1000000000000 ticks per second
src/mem/dram_interface.cc:690: warn: DRAM device capacity (8192 Mbytes) does not match the address range assigned (16384 Mbytes)
src/base/statistics.hh:279: warn: One of the stats is a legacy stat. Legacy stat is a stat that does not belong to any statistics::Group. Legacy stat is deprecated.
src/base/remote_gdb.cc:418: warn: Sockets disabled, not accepting gdb connections
src/sim/process.cc:396: warn: Checkpoints for pipes, device drivers and sockets do not work.
gem5 Simulator System.  https://www.gem5.org
gem5 is copyrighted software; use the --copyright option for details.

gem5 version 23.0.0.1
gem5 compiled Apr  6 2026 01:50:35
gem5 started Apr  7 2026 09:03:14
gem5 executing on b49ce2a326be, pid 72182
command line: /opt/gem5/build/X86/gem5.opt --outdir=/workspace/results_l3/4MB/policy0Config1/bwaves /workspace/configs/run_spec_l3.py --rp-type=DSBRP --l3-size=4MB --l3-assoc=16 --cpu-type=DerivO3CPU --cmd=./speed_bwaves_base.gem5-x86 --options=bwaves_1 --mem-size=16GB --maxinst=250000000 --caches --l2cache --l1d_size=32kB --l1i_size=32kB --l1d_assoc=8 --l1i_assoc=8 --l2_size=256kB --l2_assoc=8 --checkpoint-restore=1 --checkpoint-dir=/workspace/checkpoints/bwaves/m5out --restore-with-cpu=AtomicSimpleCPU --standard-switch=1 --warmup-insts=50000000 --input=bwaves_1.in --dsb-enable-bypass=true --dsb-enable-aging=false --dsb-bypass-counter=6 --dsb-virtual-bypass-counter=4 --dsb-random-promotion=0 --dsb-minimum-bypass-counter=8

info: Standard input is not a terminal, disabling listeners.
Replacement policy: DSBRP
L1I size: 32kB, assoc: 8
L1D size: 32kB, assoc: 8
L2 size: 256kB, assoc: 8
L3 size: 4MB, L3 assoc: 16
Switch at instruction count:1
src/sim/simulate.cc:194: info: Entering event queue @ 26022662981500.  Starting simulation...
src/sim/simulate.cc:194: info: Entering event queue @ 26022662983500.  Starting simulation...
src/sim/power_state.cc:105: warn: PowerState: Already in the requested power state, request ignored
Switched CPUS @ tick 26022662983500
switching cpus
Switch at instruction count:50000000
src/sim/simulate.cc:194: info: Entering event queue @ 26022662984000.  Starting simulation...
[DSB @ 100000 calls] bc=8 isBypassOn=false| real=33 virt=6247 notrack=93719 | touchRes=4822(eff=27,ineff=4795) resetRes=0(ineff=0,eff=0) | bc++=4795 bc--=27 inv=956
[DSB @ 200000 calls] bc=8 isBypassOn=false| real=33 virt=12542 notrack=187424 | touchRes=8099(eff=27,ineff=8072) resetRes=0(ineff=0,eff=0) | bc++=8072 bc--=27 inv=3737
[DSB @ 300000 calls] bc=8 isBypassOn=false| real=33 virt=18728 notrack=281238 | touchRes=10625(eff=27,ineff=10598) resetRes=0(ineff=0,eff=0) | bc++=10598 bc--=27 inv=7220
[DSB @ 400000 calls] bc=8 isBypassOn=false| real=33 virt=24951 notrack=375015 | touchRes=13124(eff=27,ineff=13097) resetRes=0(ineff=0,eff=0) | bc++=13097 bc--=27 inv=10687
[DSB @ 500000 calls] bc=8 isBypassOn=false| real=33 virt=31245 notrack=468721 | touchRes=15691(eff=27,ineff=15664) resetRes=0(ineff=0,eff=0) | bc++=15664 bc--=27 inv=14200
[DSB @ 600000 calls] bc=8 isBypassOn=false| real=33 virt=37494 notrack=562472 | touchRes=18347(eff=27,ineff=18320) resetRes=0(ineff=0,eff=0) | bc++=18320 bc--=27 inv=17607
[DSB @ 700000 calls] bc=8 isBypassOn=false| real=33 virt=43834 notrack=656132 | touchRes=20959(eff=27,ineff=20932) resetRes=0(ineff=0,eff=0) | bc++=20932 bc--=27 inv=21059
[DSB @ 800000 calls] bc=8 isBypassOn=false| real=33 virt=50177 notrack=749789 | touchRes=23507(eff=27,ineff=23480) resetRes=0(ineff=0,eff=0) | bc++=23480 bc--=27 inv=24655
[DSB @ 900000 calls] bc=8 isBypassOn=false| real=33 virt=56512 notrack=843454 | touchRes=26066(eff=27,ineff=26039) resetRes=0(ineff=0,eff=0) | bc++=26039 bc--=27 inv=28199
[DSB @ 1000000 calls] bc=8 isBypassOn=false| real=33 virt=62658 notrack=937308 | touchRes=28571(eff=27,ineff=28544) resetRes=0(ineff=0,eff=0) | bc++=28544 bc--=27 inv=31608
[DSB @ 1100000 calls] bc=8 isBypassOn=false| real=33 virt=68795 notrack=1031171 | touchRes=31042(eff=27,ineff=31015) resetRes=0(ineff=0,eff=0) | bc++=31015 bc--=27 inv=35044
[DSB @ 1200000 calls] bc=8 isBypassOn=false| real=33 virt=75041 notrack=1124925 | touchRes=33553(eff=27,ineff=33526) resetRes=0(ineff=0,eff=0) | bc++=33526 bc--=27 inv=38499
[DSB @ 1300000 calls] bc=8 isBypassOn=false| real=33 virt=81263 notrack=1218703 | touchRes=36154(eff=27,ineff=36127) resetRes=0(ineff=0,eff=0) | bc++=36127 bc--=27 inv=41929
[DSB @ 1400000 calls] bc=8 isBypassOn=false| real=33 virt=87510 notrack=1312456 | touchRes=38726(eff=27,ineff=38699) resetRes=0(ineff=0,eff=0) | bc++=38699 bc--=27 inv=45408
[DSB @ 1500000 calls] bc=8 isBypassOn=false| real=33 virt=93727 notrack=1406239 | touchRes=41284(eff=27,ineff=41257) resetRes=0(ineff=0,eff=0) | bc++=41257 bc--=27 inv=48813
[DSB @ 1600000 calls] bc=8 isBypassOn=false| real=33 virt=100078 notrack=1499888 | touchRes=43869(eff=27,ineff=43842) resetRes=0(ineff=0,eff=0) | bc++=43842 bc--=27 inv=52361
src/sim/simulate.cc:194: info: Entering event queue @ 26278320152500.  Starting simulation...
Switching CPUS @ tick 26278320152500
Simulation ends instruction count:250000000
switching cpus
**** REAL SIMULATION ****
src/sim/simulate.cc:194: info: Entering event queue @ 26278320154500.  Starting simulation...
[DSB @ 1700000 calls] bc=8 isBypassOn=false| real=33 virt=106318 notrack=1593648 | touchRes=46431(eff=27,ineff=46404) resetRes=0(ineff=0,eff=0) | bc++=46404 bc--=27 inv=55782
[DSB @ 1800000 calls] bc=8 isBypassOn=false| real=33 virt=112544 notrack=1687422 | touchRes=49022(eff=27,ineff=48995) resetRes=0(ineff=0,eff=0) | bc++=48995 bc--=27 inv=59179
[DSB @ 1900000 calls] bc=8 isBypassOn=false| real=33 virt=118748 notrack=1781218 | touchRes=51530(eff=27,ineff=51503) resetRes=0(ineff=0,eff=0) | bc++=51503 bc--=27 inv=62652
[DSB @ 2000000 calls] bc=8 isBypassOn=false| real=33 virt=124960 notrack=1875006 | touchRes=54011(eff=27,ineff=53984) resetRes=0(ineff=0,eff=0) | bc++=53984 bc--=27 inv=66138
[DSB @ 2100000 calls] bc=0 isBypassOn=true| real=37759 virt=128830 notrack=1933410 | touchRes=58598(eff=3048,ineff=55550) resetRes=4(ineff=0,eff=4) | bc++=55550 bc--=3052 inv=68300
[DSB @ 2200000 calls] bc=0 isBypassOn=true| real=137759 virt=128830 notrack=1933410 | touchRes=58598(eff=3048,ineff=55550) resetRes=4(ineff=0,eff=4) | bc++=55550 bc--=3052 inv=68300
[DSB @ 2300000 calls] bc=0 isBypassOn=true| real=237759 virt=128830 notrack=1933410 | touchRes=58598(eff=3048,ineff=55550) resetRes=4(ineff=0,eff=4) | bc++=55550 bc--=3052 inv=68300
[DSB @ 2400000 calls] bc=0 isBypassOn=true| real=337759 virt=128830 notrack=1933410 | touchRes=58598(eff=3048,ineff=55550) resetRes=4(ineff=0,eff=4) | bc++=55550 bc--=3052 inv=68300
[DSB @ 2500000 calls] bc=0 isBypassOn=true| real=437759 virt=128830 notrack=1933410 | touchRes=58598(eff=3048,ineff=55550) resetRes=4(ineff=0,eff=4) | bc++=55550 bc--=3052 inv=68300
[DSB @ 2600000 calls] bc=0 isBypassOn=true| real=537759 virt=128830 notrack=1933410 | touchRes=58598(eff=3048,ineff=55550) resetRes=4(ineff=0,eff=4) | bc++=55550 bc--=3052 inv=68300
[DSB @ 2700000 calls] bc=0 isBypassOn=true| real=637759 virt=128830 notrack=1933410 | touchRes=58598(eff=3048,ineff=55550) resetRes=4(ineff=0,eff=4) | bc++=55550 bc--=3052 inv=68300
[DSB @ 2800000 calls] bc=0 isBypassOn=true| real=737759 virt=128830 notrack=1933410 | touchRes=58598(eff=3048,ineff=55550) resetRes=4(ineff=0,eff=4) | bc++=55550 bc--=3052 inv=68300
[DSB @ 2900000 calls] bc=0 isBypassOn=true| real=837759 virt=128830 notrack=1933410 | touchRes=58598(eff=3048,ineff=55550) resetRes=4(ineff=0,eff=4) | bc++=55550 bc--=3052 inv=68300
[DSB @ 3000000 calls] bc=0 isBypassOn=true| real=937759 virt=128830 notrack=1933410 | touchRes=58598(eff=3048,ineff=55550) resetRes=4(ineff=0,eff=4) | bc++=55550 bc--=3052 inv=68300
[DSB @ 3100000 calls] bc=0 isBypassOn=true| real=1037759 virt=128830 notrack=1933410 | touchRes=58598(eff=3048,ineff=55550) resetRes=4(ineff=0,eff=4) | bc++=55550 bc--=3052 inv=68300
[DSB @ 3200000 calls] bc=0 isBypassOn=true| real=1137759 virt=128830 notrack=1933410 | touchRes=58598(eff=3048,ineff=55550) resetRes=4(ineff=0,eff=4) | bc++=55550 bc--=3052 inv=68300
[DSB @ 3300000 calls] bc=0 isBypassOn=true| real=1237759 virt=128830 notrack=1933410 | touchRes=58598(eff=3048,ineff=55550) resetRes=4(ineff=0,eff=4) | bc++=55550 bc--=3052 inv=68300
[DSB @ 3400000 calls] bc=0 isBypassOn=true| real=1337759 virt=128830 notrack=1933410 | touchRes=58598(eff=3048,ineff=55550) resetRes=4(ineff=0,eff=4) | bc++=55550 bc--=3052 inv=68300
[DSB @ 3500000 calls] bc=0 isBypassOn=true| real=1437759 virt=128830 notrack=1933410 | touchRes=58598(eff=3048,ineff=55550) resetRes=4(ineff=0,eff=4) | bc++=55550 bc--=3052 inv=68300
[DSB @ 3600000 calls] bc=0 isBypassOn=true| real=1537759 virt=128830 notrack=1933410 | touchRes=58598(eff=3048,ineff=55550) resetRes=4(ineff=0,eff=4) | bc++=55550 bc--=3052 inv=68300
[DSB @ 3700000 calls] bc=0 isBypassOn=true| real=1637759 virt=128830 notrack=1933410 | touchRes=58598(eff=3048,ineff=55550) resetRes=4(ineff=0,eff=4) | bc++=55550 bc--=3052 inv=68300
[DSB @ 3800000 calls] bc=0 isBypassOn=true| real=1737759 virt=128830 notrack=1933410 | touchRes=58598(eff=3048,ineff=55550) resetRes=4(ineff=0,eff=4) | bc++=55550 bc--=3052 inv=68300
[DSB @ 3900000 calls] bc=0 isBypassOn=true| real=1837759 virt=128830 notrack=1933410 | touchRes=58598(eff=3048,ineff=55550) resetRes=4(ineff=0,eff=4) | bc++=55550 bc--=3052 inv=68300
[DSB @ 4000000 calls] bc=0 isBypassOn=true| real=1937759 virt=128830 notrack=1933410 | touchRes=58598(eff=3048,ineff=55550) resetRes=4(ineff=0,eff=4) | bc++=55550 bc--=3052 inv=68300
[DSB @ 4100000 calls] bc=0 isBypassOn=true| real=2037759 virt=128830 notrack=1933410 | touchRes=58598(eff=3048,ineff=55550) resetRes=4(ineff=0,eff=4) | bc++=55550 bc--=3052 inv=68300
[DSB @ 4200000 calls] bc=0 isBypassOn=true| real=2137759 virt=128830 notrack=1933410 | touchRes=58598(eff=3048,ineff=55550) resetRes=4(ineff=0,eff=4) | bc++=55550 bc--=3052 inv=68300
[DSB @ 4300000 calls] bc=0 isBypassOn=true| real=2237759 virt=128830 notrack=1933410 | touchRes=58598(eff=3048,ineff=55550) resetRes=4(ineff=0,eff=4) | bc++=55550 bc--=3052 inv=68300
[DSB @ 4400000 calls] bc=0 isBypassOn=true| real=2337759 virt=128830 notrack=1933410 | touchRes=58598(eff=3048,ineff=55550) resetRes=4(ineff=0,eff=4) | bc++=55550 bc--=3052 inv=68300
[DSB @ 4500000 calls] bc=0 isBypassOn=true| real=2437759 virt=128830 notrack=1933410 | touchRes=58598(eff=3048,ineff=55550) resetRes=4(ineff=0,eff=4) | bc++=55550 bc--=3052 inv=68300
[DSB @ 4600000 calls] bc=0 isBypassOn=true| real=2537759 virt=128830 notrack=1933410 | touchRes=58598(eff=3048,ineff=55550) resetRes=4(ineff=0,eff=4) | bc++=55550 bc--=3052 inv=68300
[DSB @ 4700000 calls] bc=0 isBypassOn=true| real=2637759 virt=128830 notrack=1933410 | touchRes=58598(eff=3048,ineff=55550) resetRes=4(ineff=0,eff=4) | bc++=55550 bc--=3052 inv=68300
[DSB @ 4800000 calls] bc=0 isBypassOn=true| real=2737759 virt=128830 notrack=1933410 | touchRes=58598(eff=3048,ineff=55550) resetRes=4(ineff=0,eff=4) | bc++=55550 bc--=3052 inv=68300
[DSB @ 4900000 calls] bc=0 isBypassOn=true| real=2837759 virt=128830 notrack=1933410 | touchRes=58598(eff=3048,ineff=55550) resetRes=4(ineff=0,eff=4) | bc++=55550 bc--=3052 inv=68300
[DSB @ 5000000 calls] bc=0 isBypassOn=true| real=2937759 virt=128830 notrack=1933410 | touchRes=58598(eff=3048,ineff=55550) resetRes=4(ineff=0,eff=4) | bc++=55550 bc--=3052 inv=68300
[DSB @ 5100000 calls] bc=0 isBypassOn=true| real=3037759 virt=128830 notrack=1933410 | touchRes=58598(eff=3048,ineff=55550) resetRes=4(ineff=0,eff=4) | bc++=55550 bc--=3052 inv=68300
[DSB @ 5200000 calls] bc=0 isBypassOn=true| real=3137759 virt=128830 notrack=1933410 | touchRes=58598(eff=3048,ineff=55550) resetRes=4(ineff=0,eff=4) | bc++=55550 bc--=3052 inv=68300
[DSB @ 5300000 calls] bc=0 isBypassOn=true| real=3237759 virt=128830 notrack=1933410 | touchRes=58598(eff=3048,ineff=55550) resetRes=4(ineff=0,eff=4) | bc++=55550 bc--=3052 inv=68300
[DSB @ 5400000 calls] bc=0 isBypassOn=true| real=3337759 virt=128830 notrack=1933410 | touchRes=58598(eff=3048,ineff=55550) resetRes=4(ineff=0,eff=4) | bc++=55550 bc--=3052 inv=68300
[DSB @ 5500000 calls] bc=0 isBypassOn=true| real=3437759 virt=128830 notrack=1933410 | touchRes=58598(eff=3048,ineff=55550) resetRes=4(ineff=0,eff=4) | bc++=55550 bc--=3052 inv=68300
[DSB @ 5600000 calls] bc=0 isBypassOn=true| real=3537759 virt=128830 notrack=1933410 | touchRes=58598(eff=3048,ineff=55550) resetRes=4(ineff=0,eff=4) | bc++=55550 bc--=3052 inv=68300
[DSB @ 5700000 calls] bc=0 isBypassOn=true| real=3637759 virt=128830 notrack=1933410 | touchRes=58598(eff=3048,ineff=55550) resetRes=4(ineff=0,eff=4) | bc++=55550 bc--=3052 inv=68300
[DSB @ 5800000 calls] bc=0 isBypassOn=true| real=3737759 virt=128830 notrack=1933410 | touchRes=58598(eff=3048,ineff=55550) resetRes=4(ineff=0,eff=4) | bc++=55550 bc--=3052 inv=68300
[DSB @ 5900000 calls] bc=0 isBypassOn=true| real=3837759 virt=128830 notrack=1933410 | touchRes=58598(eff=3048,ineff=55550) resetRes=4(ineff=0,eff=4) | bc++=55550 bc--=3052 inv=68300
[DSB @ 6000000 calls] bc=0 isBypassOn=true| real=3937759 virt=128830 notrack=1933410 | touchRes=58598(eff=3048,ineff=55550) resetRes=4(ineff=0,eff=4) | bc++=55550 bc--=3052 inv=68300
[DSB @ 6100000 calls] bc=0 isBypassOn=true| real=4037759 virt=128830 notrack=1933410 | touchRes=58598(eff=3048,ineff=55550) resetRes=4(ineff=0,eff=4) | bc++=55550 bc--=3052 inv=68300
[DSB @ 6200000 calls] bc=0 isBypassOn=true| real=4137759 virt=128830 notrack=1933410 | touchRes=58598(eff=3048,ineff=55550) resetRes=4(ineff=0,eff=4) | bc++=55550 bc--=3052 inv=68300
[DSB @ 6300000 calls] bc=0 isBypassOn=true| real=4237759 virt=128830 notrack=1933410 | touchRes=58598(eff=3048,ineff=55550) resetRes=4(ineff=0,eff=4) | bc++=55550 bc--=3052 inv=68300
[DSB @ 6400000 calls] bc=0 isBypassOn=true| real=4337759 virt=128830 notrack=1933410 | touchRes=58598(eff=3048,ineff=55550) resetRes=4(ineff=0,eff=4) | bc++=55550 bc--=3052 inv=68300
[DSB @ 6500000 calls] bc=0 isBypassOn=true| real=4437759 virt=128830 notrack=1933410 | touchRes=58598(eff=3048,ineff=55550) resetRes=4(ineff=0,eff=4) | bc++=55550 bc--=3052 inv=68300
[DSB @ 6600000 calls] bc=0 isBypassOn=true| real=4537759 virt=128830 notrack=1933410 | touchRes=58598(eff=3048,ineff=55550) resetRes=4(ineff=0,eff=4) | bc++=55550 bc--=3052 inv=68300
[DSB @ 6700000 calls] bc=0 isBypassOn=true| real=4637759 virt=128830 notrack=1933410 | touchRes=58598(eff=3048,ineff=55550) resetRes=4(ineff=0,eff=4) | bc++=55550 bc--=3052 inv=68300
[DSB @ 6800000 calls] bc=0 isBypassOn=true| real=4737759 virt=128830 notrack=1933410 | touchRes=58598(eff=3048,ineff=55550) resetRes=4(ineff=0,eff=4) | bc++=55550 bc--=3052 inv=68300
[DSB @ 6900000 calls] bc=0 isBypassOn=true| real=4837759 virt=128830 notrack=1933410 | touchRes=58598(eff=3048,ineff=55550) resetRes=4(ineff=0,eff=4) | bc++=55550 bc--=3052 inv=68300
[DSB @ 7000000 calls] bc=0 isBypassOn=true| real=4937759 virt=128830 notrack=1933410 | touchRes=58598(eff=3048,ineff=55550) resetRes=4(ineff=0,eff=4) | bc++=55550 bc--=3052 inv=68300
[DSB @ 7100000 calls] bc=0 isBypassOn=true| real=5037759 virt=128830 notrack=1933410 | touchRes=58598(eff=3048,ineff=55550) resetRes=4(ineff=0,eff=4) | bc++=55550 bc--=3052 inv=68300
[DSB @ 7200000 calls] bc=0 isBypassOn=true| real=5137759 virt=128830 notrack=1933410 | touchRes=58598(eff=3048,ineff=55550) resetRes=4(ineff=0,eff=4) | bc++=55550 bc--=3052 inv=68300
[DSB @ 7300000 calls] bc=0 isBypassOn=true| real=5237759 virt=128830 notrack=1933410 | touchRes=58598(eff=3048,ineff=55550) resetRes=4(ineff=0,eff=4) | bc++=55550 bc--=3052 inv=68300
[DSB @ 7400000 calls] bc=0 isBypassOn=true| real=5337759 virt=128830 notrack=1933410 | touchRes=58598(eff=3048,ineff=55550) resetRes=4(ineff=0,eff=4) | bc++=55550 bc--=3052 inv=68300
[DSB @ 7500000 calls] bc=0 isBypassOn=true| real=5437759 virt=128830 notrack=1933410 | touchRes=58598(eff=3048,ineff=55550) resetRes=4(ineff=0,eff=4) | bc++=55550 bc--=3052 inv=68300
[DSB @ 7600000 calls] bc=0 isBypassOn=true| real=5537759 virt=128830 notrack=1933410 | touchRes=58598(eff=3048,ineff=55550) resetRes=4(ineff=0,eff=4) | bc++=55550 bc--=3052 inv=68300
[DSB @ 7700000 calls] bc=0 isBypassOn=true| real=5637759 virt=128830 notrack=1933410 | touchRes=58598(eff=3048,ineff=55550) resetRes=4(ineff=0,eff=4) | bc++=55550 bc--=3052 inv=68300
[DSB @ 7800000 calls] bc=0 isBypassOn=true| real=5737759 virt=128830 notrack=1933410 | touchRes=58598(eff=3048,ineff=55550) resetRes=4(ineff=0,eff=4) | bc++=55550 bc--=3052 inv=68300
[DSB @ 7900000 calls] bc=0 isBypassOn=true| real=5837759 virt=128830 notrack=1933410 | touchRes=58598(eff=3048,ineff=55550) resetRes=4(ineff=0,eff=4) | bc++=55550 bc--=3052 inv=68300
[DSB @ 8000000 calls] bc=0 isBypassOn=true| real=5937759 virt=128830 notrack=1933410 | touchRes=58598(eff=3048,ineff=55550) resetRes=4(ineff=0,eff=4) | bc++=55550 bc--=3052 inv=68300
[DSB @ 8100000 calls] bc=0 isBypassOn=true| real=6037759 virt=128830 notrack=1933410 | touchRes=58598(eff=3048,ineff=55550) resetRes=4(ineff=0,eff=4) | bc++=55550 bc--=3052 inv=68300
[DSB @ 8200000 calls] bc=0 isBypassOn=true| real=6137759 virt=128830 notrack=1933410 | touchRes=58598(eff=3048,ineff=55550) resetRes=4(ineff=0,eff=4) | bc++=55550 bc--=3052 inv=68300
[DSB @ 8300000 calls] bc=0 isBypassOn=true| real=6237759 virt=128830 notrack=1933410 | touchRes=58598(eff=3048,ineff=55550) resetRes=4(ineff=0,eff=4) | bc++=55550 bc--=3052 inv=68300
[DSB @ 8400000 calls] bc=0 isBypassOn=true| real=6337759 virt=128830 notrack=1933410 | touchRes=58598(eff=3048,ineff=55550) resetRes=4(ineff=0,eff=4) | bc++=55550 bc--=3052 inv=68300
[DSB @ 8500000 calls] bc=0 isBypassOn=true| real=6437759 virt=128830 notrack=1933410 | touchRes=58598(eff=3048,ineff=55550) resetRes=4(ineff=0,eff=4) | bc++=55550 bc--=3052 inv=68300
[DSB @ 8600000 calls] bc=0 isBypassOn=true| real=6537759 virt=128830 notrack=1933410 | touchRes=58598(eff=3048,ineff=55550) resetRes=4(ineff=0,eff=4) | bc++=55550 bc--=3052 inv=68300
[DSB @ 8700000 calls] bc=0 isBypassOn=true| real=6637759 virt=128830 notrack=1933410 | touchRes=58598(eff=3048,ineff=55550) resetRes=4(ineff=0,eff=4) | bc++=55550 bc--=3052 inv=68300
[DSB @ 8800000 calls] bc=0 isBypassOn=true| real=6737759 virt=128830 notrack=1933410 | touchRes=58598(eff=3048,ineff=55550) resetRes=4(ineff=0,eff=4) | bc++=55550 bc--=3052 inv=68300
[DSB @ 8900000 calls] bc=0 isBypassOn=true| real=6837759 virt=128830 notrack=1933410 | touchRes=58598(eff=3048,ineff=55550) resetRes=4(ineff=0,eff=4) | bc++=55550 bc--=3052 inv=68300
[DSB @ 9000000 calls] bc=0 isBypassOn=true| real=6937759 virt=128830 notrack=1933410 | touchRes=58598(eff=3048,ineff=55550) resetRes=4(ineff=0,eff=4) | bc++=55550 bc--=3052 inv=68300
[DSB @ 9100000 calls] bc=0 isBypassOn=true| real=7037759 virt=128830 notrack=1933410 | touchRes=58598(eff=3048,ineff=55550) resetRes=4(ineff=0,eff=4) | bc++=55550 bc--=3052 inv=68300
[DSB @ 9200000 calls] bc=0 isBypassOn=true| real=7137759 virt=128830 notrack=1933410 | touchRes=58598(eff=3048,ineff=55550) resetRes=4(ineff=0,eff=4) | bc++=55550 bc--=3052 inv=68300
[DSB @ 9300000 calls] bc=0 isBypassOn=true| real=7237759 virt=128830 notrack=1933410 | touchRes=58598(eff=3048,ineff=55550) resetRes=4(ineff=0,eff=4) | bc++=55550 bc--=3052 inv=68300
[DSB @ 9400000 calls] bc=0 isBypassOn=true| real=7337759 virt=128830 notrack=1933410 | touchRes=58598(eff=3048,ineff=55550) resetRes=4(ineff=0,eff=4) | bc++=55550 bc--=3052 inv=68300
[DSB @ 9500000 calls] bc=0 isBypassOn=true| real=7437759 virt=128830 notrack=1933410 | touchRes=58598(eff=3048,ineff=55550) resetRes=4(ineff=0,eff=4) | bc++=55550 bc--=3052 inv=68300
[DSB @ 9600000 calls] bc=0 isBypassOn=true| real=7537759 virt=128830 notrack=1933410 | touchRes=58598(eff=3048,ineff=55550) resetRes=4(ineff=0,eff=4) | bc++=55550 bc--=3052 inv=68300
[DSB @ 9700000 calls] bc=0 isBypassOn=true| real=7637759 virt=128830 notrack=1933410 | touchRes=58598(eff=3048,ineff=55550) resetRes=4(ineff=0,eff=4) | bc++=55550 bc--=3052 inv=68300
[DSB @ 9800000 calls] bc=0 isBypassOn=true| real=7737759 virt=128830 notrack=1933410 | touchRes=58598(eff=3048,ineff=55550) resetRes=4(ineff=0,eff=4) | bc++=55550 bc--=3052 inv=68300
[DSB @ 9900000 calls] bc=0 isBypassOn=true| real=7837759 virt=128830 notrack=1933410 | touchRes=58598(eff=3048,ineff=55550) resetRes=4(ineff=0,eff=4) | bc++=55550 bc--=3052 inv=68300
[DSB @ 10000000 calls] bc=0 isBypassOn=true| real=7937759 virt=128830 notrack=1933410 | touchRes=58598(eff=3048,ineff=55550) resetRes=4(ineff=0,eff=4) | bc++=55550 bc--=3052 inv=68300
[DSB @ 10100000 calls] bc=0 isBypassOn=true| real=8037759 virt=128830 notrack=1933410 | touchRes=58598(eff=3048,ineff=55550) resetRes=4(ineff=0,eff=4) | bc++=55550 bc--=3052 inv=68300
[DSB @ 10200000 calls] bc=0 isBypassOn=true| real=8137759 virt=128830 notrack=1933410 | touchRes=58598(eff=3048,ineff=55550) resetRes=4(ineff=0,eff=4) | bc++=55550 bc--=3052 inv=68300
[DSB @ 10300000 calls] bc=0 isBypassOn=true| real=8237759 virt=128830 notrack=1933410 | touchRes=58598(eff=3048,ineff=55550) resetRes=4(ineff=0,eff=4) | bc++=55550 bc--=3052 inv=68300
[DSB @ 10400000 calls] bc=0 isBypassOn=true| real=8337759 virt=128830 notrack=1933410 | touchRes=58598(eff=3048,ineff=55550) resetRes=4(ineff=0,eff=4) | bc++=55550 bc--=3052 inv=68300
[DSB @ 10500000 calls] bc=0 isBypassOn=true| real=8437759 virt=128830 notrack=1933410 | touchRes=58598(eff=3048,ineff=55550) resetRes=4(ineff=0,eff=4) | bc++=55550 bc--=3052 inv=68300
[DSB @ 10600000 calls] bc=0 isBypassOn=true| real=8537759 virt=128830 notrack=1933410 | touchRes=58598(eff=3048,ineff=55550) resetRes=4(ineff=0,eff=4) | bc++=55550 bc--=3052 inv=68300
[DSB @ 10700000 calls] bc=0 isBypassOn=true| real=8637759 virt=128830 notrack=1933410 | touchRes=58598(eff=3048,ineff=55550) resetRes=4(ineff=0,eff=4) | bc++=55550 bc--=3052 inv=68300
[DSB @ 10800000 calls] bc=0 isBypassOn=true| real=8737759 virt=128830 notrack=1933410 | touchRes=58598(eff=3048,ineff=55550) resetRes=4(ineff=0,eff=4) | bc++=55550 bc--=3052 inv=68300
[DSB @ 10900000 calls] bc=0 isBypassOn=true| real=8837759 virt=128830 notrack=1933410 | touchRes=62099(eff=6549,ineff=55550) resetRes=4(ineff=0,eff=4) | bc++=55550 bc--=6553 inv=68300
[DSB @ 11000000 calls] bc=8 isBypassOn=false| real=8894447 virt=131532 notrack=1974020 | touchRes=69500(eff=13195,ineff=56305) resetRes=2683(ineff=2574,eff=109) | bc++=58879 bc--=13304 inv=75716
[DSB @ 11100000 calls] bc=8 isBypassOn=false| real=8894493 virt=137795 notrack=2067711 | touchRes=71989(eff=13218,ineff=58771) resetRes=2822(ineff=2574,eff=248) | bc++=61345 bc--=13466 inv=79187
[DSB @ 11200000 calls] bc=0 isBypassOn=true| real=8953079 virt=140449 notrack=2106471 | touchRes=81765(eff=21952,ineff=59813) resetRes=2938(ineff=2629,eff=309) | bc++=62442 bc--=22261 inv=89012
[DSB @ 11300000 calls] bc=0 isBypassOn=true| real=9036853 virt=141456 notrack=2121690 | touchRes=90624(eff=30420,ineff=60204) resetRes=3115(ineff=2803,eff=312) | bc++=63007 bc--=30732 inv=101188
[DSB @ 11400000 calls] bc=0 isBypassOn=true| real=9112885 virt=142965 notrack=2144149 | touchRes=102532(eff=41780,ineff=60752) resetRes=3319(ineff=2993,eff=326) | bc++=63745 bc--=42106 inv=116530
[DSB @ 11500000 calls] bc=0 isBypassOn=true| real=9194712 virt=144139 notrack=2161148 | touchRes=112890(eff=51734,ineff=61156) resetRes=3449(ineff=3116,eff=333) | bc++=64272 bc--=52067 inv=130264
[DSB @ 11600000 calls] bc=8 isBypassOn=false| real=9263849 virt=146117 notrack=2190033 | touchRes=121180(eff=59364,ineff=61816) resetRes=3590(ineff=3228,eff=362) | bc++=65044 bc--=59726 inv=144497
[DSB @ 11700000 calls] bc=8 isBypassOn=false| real=9263879 virt=152432 notrack=2283688 | touchRes=123580(eff=59378,ineff=64202) resetRes=3744(ineff=3228,eff=516) | bc++=67430 bc--=59894 inv=148091
[DSB @ 11800000 calls] bc=7 isBypassOn=true| real=9302860 virt=156253 notrack=2340886 | touchRes=132451(eff=66720,ineff=65731) resetRes=3897(ineff=3288,eff=609) | bc++=69019 bc--=67329 inv=156233
[DSB @ 11900000 calls] bc=0 isBypassOn=true| real=9386281 virt=157240 notrack=2356478 | touchRes=141634(eff=75524,ineff=66110) resetRes=4064(ineff=3452,eff=612) | bc++=69562 bc--=76136 inv=168646
[DSB @ 12000000 calls] bc=8 isBypassOn=false| real=9388449 virt=163304 notrack=2448246 | touchRes=143977(eff=75619,ineff=68358) resetRes=4212(ineff=3455,eff=757) | bc++=71813 bc--=76376 inv=175365
Exiting @ tick 26660868341000 because a thread reached the max instruction count
