warn: The `get_runtime_isa` function is deprecated. Please migrate away from using this function.
warn: The se.py script is deprecated. It will be removed in future releases of  gem5.
warn: The `get_runtime_isa` function is deprecated. Please migrate away from using this function.
Global frequency set at 1000000000000 ticks per second
src/base/statistics.hh:279: warn: One of the stats is a legacy stat. Legacy stat is a stat that does not belong to any statistics::Group. Legacy stat is deprecated.
src/base/remote_gdb.cc:418: warn: Sockets disabled, not accepting gdb connections
src/sim/process.cc:396: warn: Checkpoints for pipes, device drivers and sockets do not work.
gem5 Simulator System.  https://www.gem5.org
gem5 is copyrighted software; use the --copyright option for details.

gem5 version 23.0.0.1
gem5 compiled Apr  6 2026 01:50:35
gem5 started Apr  7 2026 11:48:32
gem5 executing on b49ce2a326be, pid 97592
command line: /opt/gem5/build/X86/gem5.opt --outdir=/workspace/results_l3/4MB/policy0Config3/wrf /workspace/configs/run_spec_l3.py --rp-type=DSBRP --l3-size=4MB --l3-assoc=16 --cpu-type=DerivO3CPU --cmd=./wrf_s_base.gem5-x86 --options= --mem-size=8GB --maxinst=250000000 --caches --l2cache --l1d_size=32kB --l1i_size=32kB --l1d_assoc=8 --l1i_assoc=8 --l2_size=256kB --l2_assoc=8 --checkpoint-restore=1 --checkpoint-dir=/workspace/checkpoints/wrf/m5out --restore-with-cpu=AtomicSimpleCPU --standard-switch=1 --warmup-insts=50000000 --dsb-enable-bypass=true --dsb-enable-aging=false --dsb-bypass-counter=3 --dsb-virtual-bypass-counter=3 --dsb-random-promotion=0 --dsb-minimum-bypass-counter=12

info: Standard input is not a terminal, disabling listeners.
Replacement policy: DSBRP
L1I size: 32kB, assoc: 8
L1D size: 32kB, assoc: 8
L2 size: 256kB, assoc: 8
L3 size: 4MB, L3 assoc: 16
Switch at instruction count:1
src/sim/simulate.cc:194: info: Entering event queue @ 27778733914000.  Starting simulation...
src/sim/simulate.cc:194: info: Entering event queue @ 27778733915500.  Starting simulation...
src/sim/power_state.cc:105: warn: PowerState: Already in the requested power state, request ignored
Switched CPUS @ tick 27778733915500
switching cpus
Switch at instruction count:50000000
src/sim/simulate.cc:194: info: Entering event queue @ 27778733916000.  Starting simulation...
[DSB @ 100000 calls] bc=12 isBypassOn=false| real=399 virt=12378 notrack=87222 | touchRes=10391(eff=240,ineff=10151) resetRes=72(ineff=64,eff=8) | bc++=10215 bc--=248 inv=1102
[DSB @ 200000 calls] bc=10 isBypassOn=true| real=31112 virt=21154 notrack=147733 | touchRes=21326(eff=8718,ineff=12608) resetRes=4121(ineff=3499,eff=622) | bc++=16107 bc--=9340 inv=13465
[DSB @ 300000 calls] bc=12 isBypassOn=false| real=65773 virt=29304 notrack=204922 | touchRes=30625(eff=15852,ineff=14773) resetRes=9713(ineff=8126,eff=1587) | bc++=22899 bc--=17439 inv=25845
[DSB @ 400000 calls] bc=4 isBypassOn=true| real=121951 virt=34659 notrack=243389 | touchRes=37643(eff=21165,ineff=16478) resetRes=12171(ineff=9938,eff=2233) | bc++=26416 bc--=23398 inv=36454
[DSB @ 500000 calls] bc=5 isBypassOn=true| real=148235 virt=43900 notrack=307864 | touchRes=47172(eff=26674,ineff=20498) resetRes=15063(ineff=11977,eff=3086) | bc++=32475 bc--=29760 inv=48885
src/sim/simulate.cc:194: info: Entering event queue @ 27932009579500.  Starting simulation...
Switching CPUS @ tick 27932009579500
Simulation ends instruction count:250000000
switching cpus
**** REAL SIMULATION ****
src/sim/simulate.cc:194: info: Entering event queue @ 27932009744500.  Starting simulation...
[DSB @ 600000 calls] bc=0 isBypassOn=true| real=183836 virt=52131 notrack=364032 | touchRes=57638(eff=33868,ineff=23770) resetRes=17462(ineff=13289,eff=4173) | bc++=37059 bc--=38041 inv=59532
[DSB @ 700000 calls] bc=12 isBypassOn=false| real=225705 virt=59316 notrack=414978 | touchRes=68961(eff=42827,ineff=26134) resetRes=22366(ineff=17332,eff=5034) | bc++=43466 bc--=47861 inv=72539
[DSB @ 800000 calls] bc=0 isBypassOn=true| real=246656 virt=69271 notrack=484072 | touchRes=81678(eff=49453,ineff=32225) resetRes=25645(ineff=19714,eff=5931) | bc++=51939 bc--=55384 inv=78569
[DSB @ 900000 calls] bc=12 isBypassOn=false| real=279954 virt=77692 notrack=542353 | touchRes=93696(eff=57407,ineff=36289) resetRes=28339(ineff=21688,eff=6651) | bc++=57977 bc--=64058 inv=90437
[DSB @ 1000000 calls] bc=12 isBypassOn=false| real=304331 virt=86997 notrack=608671 | touchRes=104800(eff=63801,ineff=40999) resetRes=31644(ineff=24378,eff=7266) | bc++=65377 bc--=71067 inv=98704
[DSB @ 1100000 calls] bc=0 isBypassOn=true| real=326766 virt=96717 notrack=676516 | touchRes=113591(eff=69167,ineff=44424) resetRes=33400(ineff=25693,eff=7707) | bc++=70117 bc--=76874 inv=108195
[DSB @ 1200000 calls] bc=0 isBypassOn=true| real=360016 virt=105187 notrack=734796 | touchRes=121415(eff=75090,ineff=46325) resetRes=38454(ineff=29750,eff=8704) | bc++=76075 bc--=83794 inv=122300
[DSB @ 1300000 calls] bc=3 isBypassOn=true| real=385674 virt=114522 notrack=799803 | touchRes=132435(eff=83331,ineff=49104) resetRes=40582(ineff=31505,eff=9077) | bc++=80609 bc--=92408 inv=134719
[DSB @ 1400000 calls] bc=4 isBypassOn=true| real=396962 virt=125726 notrack=877311 | touchRes=141175(eff=86234,ineff=54941) resetRes=42230(ineff=32622,eff=9608) | bc++=87563 bc--=95842 inv=142311
[DSB @ 1500000 calls] bc=0 isBypassOn=true| real=448907 virt=131692 notrack=919400 | touchRes=149800(eff=93962,ineff=55838) resetRes=45768(ineff=35499,eff=10269) | bc++=91337 bc--=104231 inv=153655
[DSB @ 1600000 calls] bc=0 isBypassOn=true| real=527347 virt=134397 notrack=938255 | touchRes=154998(eff=98801,ineff=56197) resetRes=47877(ineff=37203,eff=10674) | bc++=93400 bc--=109475 inv=160194
[DSB @ 1700000 calls] bc=12 isBypassOn=false| real=558738 virt=142932 notrack=998329 | touchRes=160461(eff=101029,ineff=59432) resetRes=49273(ineff=37913,eff=11360) | bc++=97345 bc--=112389 inv=171457
[DSB @ 1800000 calls] bc=12 isBypassOn=false| real=583843 virt=152364 notrack=1063792 | touchRes=169990(eff=106754,ineff=63236) resetRes=51683(ineff=39540,eff=12143) | bc++=102776 bc--=118897 inv=182855
[DSB @ 1900000 calls] bc=12 isBypassOn=false| real=606604 virt=161959 notrack=1131436 | touchRes=179167(eff=112465,ineff=66702) resetRes=54569(ineff=41781,eff=12788) | bc++=108483 bc--=125253 inv=194045
[DSB @ 2000000 calls] bc=12 isBypassOn=false| real=606612 virt=174487 notrack=1218900 | touchRes=185226(eff=112467,ineff=72759) resetRes=55096(ineff=41781,eff=13315) | bc++=114540 bc--=125782 inv=199106
Exiting @ tick 28082675859000 because a thread reached the max instruction count
