warn: The `get_runtime_isa` function is deprecated. Please migrate away from using this function.
warn: The se.py script is deprecated. It will be removed in future releases of  gem5.
warn: The `get_runtime_isa` function is deprecated. Please migrate away from using this function.
Global frequency set at 1000000000000 ticks per second
src/base/statistics.hh:279: warn: One of the stats is a legacy stat. Legacy stat is a stat that does not belong to any statistics::Group. Legacy stat is deprecated.
src/base/remote_gdb.cc:418: warn: Sockets disabled, not accepting gdb connections
src/sim/process.cc:396: warn: Checkpoints for pipes, device drivers and sockets do not work.
gem5 Simulator System.  https://www.gem5.org
gem5 is copyrighted software; use the --copyright option for details.

gem5 version 23.0.0.1
gem5 compiled Apr  6 2026 01:50:35
gem5 started Apr  6 2026 15:46:01
gem5 executing on b49ce2a326be, pid 242595
command line: /opt/gem5/build/X86/gem5.opt --outdir=/workspace/results_l3/2MB/policy1Config3/xalancbmk /workspace/configs/run_spec_l3.py --rp-type=DSBRP --l3-size=2MB --l3-assoc=16 --cpu-type=DerivO3CPU --cmd=./xalancbmk_s_base.gem5-x86 '--options=-v t5.xml xalanc.xsl' --mem-size=8GB --maxinst=250000000 --caches --l2cache --l1d_size=32kB --l1i_size=32kB --l1d_assoc=8 --l1i_assoc=8 --l2_size=256kB --l2_assoc=8 --checkpoint-restore=1 --checkpoint-dir=/workspace/checkpoints/xalancbmk/m5out --restore-with-cpu=AtomicSimpleCPU --standard-switch=1 --warmup-insts=50000000 --dsb-enable-bypass=true --dsb-enable-aging=true --dsb-bypass-counter=3 --dsb-virtual-bypass-counter=3 --dsb-random-promotion=4 --dsb-minimum-bypass-counter=12

info: Standard input is not a terminal, disabling listeners.
Replacement policy: DSBRP
L1I size: 32kB, assoc: 8
L1D size: 32kB, assoc: 8
L2 size: 256kB, assoc: 8
L3 size: 2MB, L3 assoc: 16
Switch at instruction count:1
src/sim/simulate.cc:194: info: Entering event queue @ 27962974663500.  Starting simulation...
src/sim/simulate.cc:194: info: Entering event queue @ 27962974665000.  Starting simulation...
src/sim/power_state.cc:105: warn: PowerState: Already in the requested power state, request ignored
Switched CPUS @ tick 27962974665000
switching cpus
Switch at instruction count:50000000
src/sim/simulate.cc:194: info: Entering event queue @ 27962974666000.  Starting simulation...
[DSB @ 100000 calls] bc=12 isBypassOn=false| real=28859 virt=8847 notrack=62293 | touchRes=9885(eff=3176,ineff=6709) resetRes=667(ineff=380,eff=287) | bc++=7089 bc--=3463 inv=2134
[DSB @ 200000 calls] bc=0 isBypassOn=true| real=93406 virt=13215 notrack=93378 | touchRes=30812(eff=21124,ineff=9688) resetRes=2046(ineff=1081,eff=965) | bc++=10769 bc--=22089 inv=4525
src/sim/simulate.cc:194: info: Entering event queue @ 28102403505500.  Starting simulation...
Switching CPUS @ tick 28102403505500
Simulation ends instruction count:250000000
switching cpus
**** REAL SIMULATION ****
src/sim/simulate.cc:194: info: Entering event queue @ 28102403640500.  Starting simulation...
[DSB @ 300000 calls] bc=5 isBypassOn=true| real=148776 virt=18675 notrack=132548 | touchRes=51132(eff=37797,ineff=13335) resetRes=3534(ineff=1922,eff=1612) | bc++=15257 bc--=39409 inv=6711
[DSB @ 400000 calls] bc=12 isBypassOn=false| real=172248 virt=28213 notrack=199538 | touchRes=60839(eff=40601,ineff=20238) resetRes=4363(ineff=2263,eff=2100) | bc++=22501 bc--=42701 inv=9615
[DSB @ 500000 calls] bc=0 isBypassOn=true| real=206621 virt=36425 notrack=256953 | touchRes=74964(eff=48651,ineff=26313) resetRes=5397(ineff=2580,eff=2817) | bc++=28893 bc--=51468 inv=10156
[DSB @ 600000 calls] bc=0 isBypassOn=true| real=265123 virt=41631 notrack=293245 | touchRes=99400(eff=69909,ineff=29491) resetRes=7537(ineff=3955,eff=3582) | bc++=33446 bc--=73491 inv=12992
[DSB @ 700000 calls] bc=12 isBypassOn=false| real=303281 virt=49318 notrack=347400 | touchRes=115469(eff=80544,ineff=34925) resetRes=8183(ineff=4201,eff=3982) | bc++=39126 bc--=84526 inv=14774
[DSB @ 800000 calls] bc=0 isBypassOn=true| real=328576 virt=58697 notrack=412726 | touchRes=126993(eff=85468,ineff=41525) resetRes=9892(ineff=4808,eff=5084) | bc++=46333 bc--=90552 inv=17062
[DSB @ 900000 calls] bc=0 isBypassOn=true| real=374432 virt=65448 notrack=460119 | touchRes=140097(eff=93948,ineff=46149) resetRes=10932(ineff=5081,eff=5851) | bc++=51230 bc--=99799 inv=19864
[DSB @ 1000000 calls] bc=12 isBypassOn=false| real=427496 virt=71288 notrack=501215 | touchRes=154592(eff=104628,ineff=49964) resetRes=11923(ineff=5589,eff=6334) | bc++=55553 bc--=110962 inv=23395
[DSB @ 1100000 calls] bc=12 isBypassOn=false| real=455361 virt=80256 notrack=564382 | touchRes=166120(eff=109358,ineff=56762) resetRes=12913(ineff=5934,eff=6979) | bc++=62696 bc--=116337 inv=26301
[DSB @ 1200000 calls] bc=12 isBypassOn=false| real=474470 virt=90291 notrack=635238 | touchRes=176134(eff=112265,ineff=63869) resetRes=14009(ineff=6140,eff=7869) | bc++=70009 bc--=120134 inv=28337
[DSB @ 1300000 calls] bc=0 isBypassOn=true| real=520919 virt=96963 notrack=682117 | touchRes=188209(eff=119743,ineff=68466) resetRes=15346(ineff=6684,eff=8662) | bc++=75150 bc--=128405 inv=31696
[DSB @ 1400000 calls] bc=11 isBypassOn=true| real=531553 virt=108138 notrack=760308 | touchRes=197367(eff=120889,ineff=76478) resetRes=16453(ineff=6930,eff=9523) | bc++=83408 bc--=130412 inv=33465
[DSB @ 1500000 calls] bc=12 isBypassOn=false| real=566707 virt=116238 notrack=817054 | touchRes=207891(eff=125698,ineff=82193) resetRes=17270(ineff=7004,eff=10266) | bc++=89197 bc--=135964 inv=38105
[DSB @ 1600000 calls] bc=12 isBypassOn=false| real=587241 virt=126216 notrack=886542 | touchRes=218598(eff=129436,ineff=89162) resetRes=18137(ineff=7035,eff=11102) | bc++=96197 bc--=140538 inv=40203
[DSB @ 1700000 calls] bc=0 isBypassOn=true| real=611612 virt=135696 notrack=952691 | touchRes=229908(eff=133558,ineff=96350) resetRes=19337(ineff=7466,eff=11871) | bc++=103816 bc--=145429 inv=42236
[DSB @ 1800000 calls] bc=12 isBypassOn=false| real=662655 virt=141823 notrack=995521 | touchRes=243734(eff=143744,ineff=99990) resetRes=20729(ineff=8311,eff=12418) | bc++=108301 bc--=156162 inv=48230
[DSB @ 1900000 calls] bc=0 isBypassOn=true| real=712774 virt=148079 notrack=1039146 | touchRes=257948(eff=153668,ineff=104280) resetRes=22187(ineff=8902,eff=13285) | bc++=113182 bc--=166953 inv=50447
[DSB @ 2000000 calls] bc=0 isBypassOn=true| real=751839 virt=155777 notrack=1092383 | touchRes=270633(eff=161081,ineff=109552) resetRes=23400(ineff=9287,eff=14113) | bc++=118839 bc--=175194 inv=53772
Exiting @ tick 28388904854000 because a thread reached the max instruction count
