warn: The `get_runtime_isa` function is deprecated. Please migrate away from using this function.
warn: The se.py script is deprecated. It will be removed in future releases of  gem5.
warn: The `get_runtime_isa` function is deprecated. Please migrate away from using this function.
Global frequency set at 1000000000000 ticks per second
src/base/statistics.hh:279: warn: One of the stats is a legacy stat. Legacy stat is a stat that does not belong to any statistics::Group. Legacy stat is deprecated.
src/base/remote_gdb.cc:418: warn: Sockets disabled, not accepting gdb connections
src/sim/process.cc:396: warn: Checkpoints for pipes, device drivers and sockets do not work.
gem5 Simulator System.  https://www.gem5.org
gem5 is copyrighted software; use the --copyright option for details.

gem5 version 23.0.0.1
gem5 compiled Apr  6 2026 01:50:35
gem5 started Apr  6 2026 02:13:18
gem5 executing on b49ce2a326be, pid 97540
command line: /opt/gem5/build/X86/gem5.opt --outdir=/workspace/results_l3/1MB/policy0Config1/x264 /workspace/configs/run_spec_l3.py --rp-type=DSBRP --l3-size=1MB --l3-assoc=16 --cpu-type=DerivO3CPU --cmd=./x264_s_base.gem5-x86 '--options=--pass 1 --stats x264_stats.log --bitrate 1000 --frames 1000 -o BuckBunny_New.264 BuckBunny.yuv 1280x720' --mem-size=8GB --maxinst=250000000 --caches --l2cache --l1d_size=32kB --l1i_size=32kB --l1d_assoc=8 --l1i_assoc=8 --l2_size=256kB --l2_assoc=8 --checkpoint-restore=1 --checkpoint-dir=/workspace/checkpoints/x264/m5out --restore-with-cpu=AtomicSimpleCPU --standard-switch=1 --warmup-insts=50000000 --dsb-enable-bypass=true --dsb-enable-aging=false --dsb-bypass-counter=6 --dsb-virtual-bypass-counter=4 --dsb-random-promotion=0 --dsb-minimum-bypass-counter=8

info: Standard input is not a terminal, disabling listeners.
Replacement policy: DSBRP
L1I size: 32kB, assoc: 8
L1D size: 32kB, assoc: 8
L2 size: 256kB, assoc: 8
L3 size: 1MB, L3 assoc: 16
Switch at instruction count:1
src/sim/simulate.cc:194: info: Entering event queue @ 21878961284000.  Starting simulation...
src/sim/simulate.cc:194: info: Entering event queue @ 21878961285000.  Starting simulation...
src/sim/power_state.cc:105: warn: PowerState: Already in the requested power state, request ignored
Switched CPUS @ tick 21878961285000
switching cpus
Switch at instruction count:50000000
src/sim/simulate.cc:194: info: Entering event queue @ 21878961286000.  Starting simulation...
src/sim/simulate.cc:194: info: Entering event queue @ 21966708780500.  Starting simulation...
Switching CPUS @ tick 21966708780500
Simulation ends instruction count:250000000
switching cpus
**** REAL SIMULATION ****
src/sim/simulate.cc:194: info: Entering event queue @ 21966708974250.  Starting simulation...
[DSB @ 100000 calls] bc=0 isBypassOn=true| real=51221 virt=2985 notrack=45793 | touchRes=6044(eff=5135,ineff=909) resetRes=1151(ineff=1035,eff=116) | bc++=1944 bc--=5251 inv=7415
[DSB @ 200000 calls] bc=8 isBypassOn=false| real=140010 virt=3683 notrack=56306 | touchRes=6501(eff=5591,ineff=910) resetRes=1172(ineff=1056,eff=116) | bc++=1966 bc--=5707 inv=8996
[DSB @ 300000 calls] bc=0 isBypassOn=true| real=166890 virt=8320 notrack=124789 | touchRes=8841(eff=7921,ineff=920) resetRes=1456(ineff=1328,eff=128) | bc++=2248 bc--=8049 inv=16663
[DSB @ 400000 calls] bc=0 isBypassOn=true| real=247308 virt=9599 notrack=143092 | touchRes=16105(eff=15143,ineff=962) resetRes=2450(ineff=2289,eff=161) | bc++=3251 bc--=15304 inv=25812
Exiting @ tick 22083008256000 because a thread reached the max instruction count
