warn: The `get_runtime_isa` function is deprecated. Please migrate away from using this function.
warn: The se.py script is deprecated. It will be removed in future releases of  gem5.
warn: The `get_runtime_isa` function is deprecated. Please migrate away from using this function.
Global frequency set at 1000000000000 ticks per second
src/mem/dram_interface.cc:690: warn: DRAM device capacity (8192 Mbytes) does not match the address range assigned (16384 Mbytes)
src/base/statistics.hh:279: warn: One of the stats is a legacy stat. Legacy stat is a stat that does not belong to any statistics::Group. Legacy stat is deprecated.
src/base/remote_gdb.cc:418: warn: Sockets disabled, not accepting gdb connections
src/sim/process.cc:396: warn: Checkpoints for pipes, device drivers and sockets do not work.
gem5 Simulator System.  https://www.gem5.org
gem5 is copyrighted software; use the --copyright option for details.

gem5 version 23.0.0.1
gem5 compiled Apr  6 2026 01:50:35
gem5 started Apr  6 2026 16:44:07
gem5 executing on b49ce2a326be, pid 253239
command line: /opt/gem5/build/X86/gem5.opt --outdir=/workspace/results_l3/2MB/policy1Config3/roms /workspace/configs/run_spec_l3.py --rp-type=DSBRP --l3-size=2MB --l3-assoc=16 --cpu-type=DerivO3CPU --cmd=./sroms_base.gem5-x86 --options= --mem-size=16GB --maxinst=250000000 --caches --l2cache --l1d_size=32kB --l1i_size=32kB --l1d_assoc=8 --l1i_assoc=8 --l2_size=256kB --l2_assoc=8 --checkpoint-restore=1 --checkpoint-dir=/workspace/checkpoints/roms/m5out --restore-with-cpu=AtomicSimpleCPU --standard-switch=1 --warmup-insts=50000000 --input=ocean_benchmark3.in --dsb-enable-bypass=true --dsb-enable-aging=true --dsb-bypass-counter=3 --dsb-virtual-bypass-counter=3 --dsb-random-promotion=4 --dsb-minimum-bypass-counter=12

info: Standard input is not a terminal, disabling listeners.
Replacement policy: DSBRP
L1I size: 32kB, assoc: 8
L1D size: 32kB, assoc: 8
L2 size: 256kB, assoc: 8
L3 size: 2MB, L3 assoc: 16
Switch at instruction count:1
src/sim/simulate.cc:194: info: Entering event queue @ 26962283379000.  Starting simulation...
src/sim/power_state.cc:105: warn: PowerState: Already in the requested power state, request ignored
Switched CPUS @ tick 26962283380500
switching cpus
Switch at instruction count:50000000
src/sim/simulate.cc:194: info: Entering event queue @ 26962283380500.  Starting simulation...
[DSB @ 100000 calls] bc=12 isBypassOn=false| real=194 virt=12362 notrack=87443 | touchRes=9667(eff=104,ineff=9563) resetRes=479(ineff=20,eff=459) | bc++=9583 bc--=563 inv=25
[DSB @ 200000 calls] bc=12 isBypassOn=false| real=200 virt=24727 notrack=175072 | touchRes=19088(eff=104,ineff=18984) resetRes=1175(ineff=20,eff=1155) | bc++=19004 bc--=1259 inv=273
[DSB @ 300000 calls] bc=12 isBypassOn=false| real=204 virt=37327 notrack=262468 | touchRes=28599(eff=104,ineff=28495) resetRes=1978(ineff=20,eff=1958) | bc++=28515 bc--=2062 inv=476
src/sim/simulate.cc:194: info: Entering event queue @ 27116978870500.  Starting simulation...
Switching CPUS @ tick 27116978870500
Simulation ends instruction count:250000000
switching cpus
**** REAL SIMULATION ****
src/sim/simulate.cc:194: info: Entering event queue @ 27116978987500.  Starting simulation...
[DSB @ 400000 calls] bc=12 isBypassOn=false| real=208 virt=50057 notrack=349734 | touchRes=37968(eff=104,ineff=37864) resetRes=2969(ineff=22,eff=2947) | bc++=37886 bc--=3051 inv=798
[DSB @ 500000 calls] bc=12 isBypassOn=false| real=213 virt=62549 notrack=437237 | touchRes=47182(eff=104,ineff=47078) resetRes=3902(ineff=23,eff=3879) | bc++=47101 bc--=3983 inv=1095
[DSB @ 600000 calls] bc=12 isBypassOn=false| real=217 virt=75035 notrack=524747 | touchRes=56396(eff=104,ineff=56292) resetRes=4703(ineff=24,eff=4679) | bc++=56316 bc--=4783 inv=1350
[DSB @ 700000 calls] bc=12 isBypassOn=false| real=221 virt=87508 notrack=612270 | touchRes=65769(eff=105,ineff=65664) resetRes=5438(ineff=24,eff=5414) | bc++=65688 bc--=5519 inv=1623
[DSB @ 800000 calls] bc=12 isBypassOn=false| real=225 virt=99928 notrack=699846 | touchRes=75137(eff=105,ineff=75032) resetRes=6215(ineff=25,eff=6190) | bc++=75057 bc--=6295 inv=1918
[DSB @ 900000 calls] bc=12 isBypassOn=false| real=226 virt=112464 notrack=787309 | touchRes=84517(eff=105,ineff=84412) resetRes=7006(ineff=25,eff=6981) | bc++=84437 bc--=7086 inv=2198
[DSB @ 1000000 calls] bc=12 isBypassOn=false| real=231 virt=124783 notrack=874985 | touchRes=93718(eff=107,ineff=93611) resetRes=7839(ineff=25,eff=7814) | bc++=93636 bc--=7921 inv=2485
[DSB @ 1100000 calls] bc=12 isBypassOn=false| real=240 virt=137244 notrack=962515 | touchRes=102978(eff=107,ineff=102871) resetRes=8737(ineff=25,eff=8712) | bc++=102896 bc--=8819 inv=2768
[DSB @ 1200000 calls] bc=12 isBypassOn=false| real=243 virt=149884 notrack=1049872 | touchRes=112456(eff=107,ineff=112349) resetRes=9530(ineff=25,eff=9505) | bc++=112374 bc--=9612 inv=3017
[DSB @ 1300000 calls] bc=11 isBypassOn=true| real=247 virt=162270 notrack=1137482 | touchRes=121720(eff=107,ineff=121613) resetRes=10390(ineff=25,eff=10365) | bc++=121638 bc--=10472 inv=3301
[DSB @ 1400000 calls] bc=12 isBypassOn=false| real=251 virt=174764 notrack=1224984 | touchRes=131048(eff=107,ineff=130941) resetRes=11239(ineff=25,eff=11214) | bc++=130966 bc--=11321 inv=3630
[DSB @ 1500000 calls] bc=12 isBypassOn=false| real=256 virt=187244 notrack=1312499 | touchRes=140227(eff=107,ineff=140120) resetRes=12137(ineff=25,eff=12112) | bc++=140145 bc--=12219 inv=3909
[DSB @ 1600000 calls] bc=12 isBypassOn=false| real=259 virt=199806 notrack=1399934 | touchRes=149659(eff=107,ineff=149552) resetRes=12948(ineff=25,eff=12923) | bc++=149577 bc--=13030 inv=4178
[DSB @ 1700000 calls] bc=12 isBypassOn=false| real=260 virt=212289 notrack=1487450 | touchRes=159098(eff=107,ineff=158991) resetRes=13826(ineff=25,eff=13801) | bc++=159016 bc--=13908 inv=4452
[DSB @ 1800000 calls] bc=12 isBypassOn=false| real=261 virt=224816 notrack=1574922 | touchRes=168518(eff=107,ineff=168411) resetRes=14539(ineff=26,eff=14513) | bc++=168437 bc--=14620 inv=4732
[DSB @ 1900000 calls] bc=12 isBypassOn=false| real=267 virt=237131 notrack=1662601 | touchRes=177735(eff=108,ineff=177627) resetRes=15319(ineff=26,eff=15293) | bc++=177653 bc--=15401 inv=5036
[DSB @ 2000000 calls] bc=12 isBypassOn=false| real=272 virt=249716 notrack=1750011 | touchRes=187160(eff=108,ineff=187052) resetRes=16201(ineff=28,eff=16173) | bc++=187080 bc--=16281 inv=5321
[DSB @ 2100000 calls] bc=12 isBypassOn=false| real=276 virt=262159 notrack=1837564 | touchRes=196471(eff=109,ineff=196362) resetRes=17037(ineff=28,eff=17009) | bc++=196390 bc--=17118 inv=5611
[DSB @ 2200000 calls] bc=12 isBypassOn=false| real=278 virt=274693 notrack=1925028 | touchRes=205728(eff=109,ineff=205619) resetRes=18010(ineff=29,eff=17981) | bc++=205648 bc--=18090 inv=5946
[DSB @ 2300000 calls] bc=12 isBypassOn=false| real=281 virt=287127 notrack=2012591 | touchRes=215039(eff=109,ineff=214930) resetRes=18810(ineff=30,eff=18780) | bc++=214960 bc--=18889 inv=6201
Exiting @ tick 27297864871500 because a thread reached the max instruction count
