warn: The `get_runtime_isa` function is deprecated. Please migrate away from using this function.
warn: The se.py script is deprecated. It will be removed in future releases of  gem5.
warn: The `get_runtime_isa` function is deprecated. Please migrate away from using this function.
Global frequency set at 1000000000000 ticks per second
src/base/statistics.hh:279: warn: One of the stats is a legacy stat. Legacy stat is a stat that does not belong to any statistics::Group. Legacy stat is deprecated.
src/base/remote_gdb.cc:418: warn: Sockets disabled, not accepting gdb connections
src/sim/process.cc:396: warn: Checkpoints for pipes, device drivers and sockets do not work.
gem5 Simulator System.  https://www.gem5.org
gem5 is copyrighted software; use the --copyright option for details.

gem5 version 23.0.0.1
gem5 compiled Apr  6 2026 01:50:35
gem5 started Apr  6 2026 10:53:07
gem5 executing on b49ce2a326be, pid 188753
command line: /opt/gem5/build/X86/gem5.opt --outdir=/workspace/results_l3/2MB/policy0Config2/xalancbmk /workspace/configs/run_spec_l3.py --rp-type=DSBRP --l3-size=2MB --l3-assoc=16 --cpu-type=DerivO3CPU --cmd=./xalancbmk_s_base.gem5-x86 '--options=-v t5.xml xalanc.xsl' --mem-size=8GB --maxinst=250000000 --caches --l2cache --l1d_size=32kB --l1i_size=32kB --l1d_assoc=8 --l1i_assoc=8 --l2_size=256kB --l2_assoc=8 --checkpoint-restore=1 --checkpoint-dir=/workspace/checkpoints/xalancbmk/m5out --restore-with-cpu=AtomicSimpleCPU --standard-switch=1 --warmup-insts=50000000 --dsb-enable-bypass=true --dsb-enable-aging=false --dsb-bypass-counter=6 --dsb-virtual-bypass-counter=3 --dsb-random-promotion=0 --dsb-minimum-bypass-counter=12

info: Standard input is not a terminal, disabling listeners.
Replacement policy: DSBRP
L1I size: 32kB, assoc: 8
L1D size: 32kB, assoc: 8
L2 size: 256kB, assoc: 8
L3 size: 2MB, L3 assoc: 16
Switch at instruction count:1
src/sim/simulate.cc:194: info: Entering event queue @ 27962974663500.  Starting simulation...
src/sim/simulate.cc:194: info: Entering event queue @ 27962974665000.  Starting simulation...
src/sim/power_state.cc:105: warn: PowerState: Already in the requested power state, request ignored
Switched CPUS @ tick 27962974665000
switching cpus
Switch at instruction count:50000000
src/sim/simulate.cc:194: info: Entering event queue @ 27962974666000.  Starting simulation...
[DSB @ 100000 calls] bc=12 isBypassOn=false| real=13067 virt=10819 notrack=76113 | touchRes=7831(eff=2941,ineff=4890) resetRes=188(ineff=132,eff=56) | bc++=5022 bc--=2997 inv=5670
[DSB @ 200000 calls] bc=12 isBypassOn=false| real=59612 virt=17467 notrack=122920 | touchRes=25695(eff=18435,ineff=7260) resetRes=1007(ineff=633,eff=374) | bc++=7893 bc--=18809 inv=10832
src/sim/simulate.cc:194: info: Entering event queue @ 28102548502500.  Starting simulation...
Switching CPUS @ tick 28102548502500
Simulation ends instruction count:250000000
switching cpus
**** REAL SIMULATION ****
src/sim/simulate.cc:194: info: Entering event queue @ 28102548581250.  Starting simulation...
[DSB @ 300000 calls] bc=5 isBypassOn=true| real=126305 virt=21827 notrack=151867 | touchRes=45816(eff=37028,ineff=8788) resetRes=2378(ineff=1616,eff=762) | bc++=10404 bc--=37790 inv=15335
[DSB @ 400000 calls] bc=0 isBypassOn=true| real=154399 virt=30878 notrack=214722 | touchRes=53950(eff=42781,ineff=11169) resetRes=3158(ineff=2219,eff=939) | bc++=13388 bc--=43720 inv=24080
[DSB @ 500000 calls] bc=12 isBypassOn=true| real=205234 virt=36985 notrack=257780 | touchRes=69419(eff=56535,ineff=12884) resetRes=4170(ineff=2980,eff=1190) | bc++=15864 bc--=57725 inv=30319
[DSB @ 600000 calls] bc=0 isBypassOn=true| real=272220 virt=41112 notrack=286667 | touchRes=99151(eff=84691,ineff=14460) resetRes=5863(ineff=4095,eff=1768) | bc++=18555 bc--=86459 inv=33436
[DSB @ 700000 calls] bc=12 isBypassOn=false| real=298536 virt=50340 notrack=351123 | touchRes=105332(eff=88619,ineff=16713) resetRes=6476(ineff=4536,eff=1940) | bc++=21249 bc--=90559 inv=42105
[DSB @ 800000 calls] bc=0 isBypassOn=true| real=315890 virt=60818 notrack=423291 | touchRes=112342(eff=92528,ineff=19814) resetRes=7056(ineff=4771,eff=2285) | bc++=24585 bc--=94813 inv=49396
[DSB @ 900000 calls] bc=12 isBypassOn=false| real=351349 virt=68880 notrack=479770 | touchRes=123196(eff=101182,ineff=22014) resetRes=7645(ineff=5246,eff=2399) | bc++=27260 bc--=103581 inv=57289
[DSB @ 1000000 calls] bc=0 isBypassOn=true| real=389701 virt=76517 notrack=533781 | touchRes=134139(eff=109787,ineff=24352) resetRes=8142(ineff=5444,eff=2698) | bc++=29796 bc--=112485 inv=64405
[DSB @ 1100000 calls] bc=4 isBypassOn=true| real=432026 virt=83618 notrack=584355 | touchRes=146069(eff=119628,ineff=26441) resetRes=8842(ineff=5831,eff=3011) | bc++=32272 bc--=122639 inv=71833
[DSB @ 1200000 calls] bc=12 isBypassOn=false| real=449556 virt=94072 notrack=656371 | touchRes=152698(eff=123548,ineff=29150) resetRes=9427(ineff=6241,eff=3186) | bc++=35391 bc--=126734 inv=80215
[DSB @ 1300000 calls] bc=12 isBypassOn=false| real=468421 virt=104269 notrack=727309 | touchRes=161451(eff=129554,ineff=31897) resetRes=10064(ineff=6609,eff=3455) | bc++=38506 bc--=133009 inv=87579
[DSB @ 1400000 calls] bc=12 isBypassOn=true| real=496551 virt=113147 notrack=790301 | touchRes=170078(eff=135588,ineff=34490) resetRes=10714(ineff=7028,eff=3686) | bc++=41518 bc--=139274 inv=95686
[DSB @ 1500000 calls] bc=0 isBypassOn=true| real=533027 virt=121183 notrack=845789 | touchRes=181375(eff=144545,ineff=36830) resetRes=11548(ineff=7524,eff=4024) | bc++=44354 bc--=148569 inv=103263
[DSB @ 1600000 calls] bc=12 isBypassOn=false| real=562753 virt=129978 notrack=907268 | touchRes=192328(eff=153034,ineff=39294) resetRes=12397(ineff=8045,eff=4352) | bc++=47339 bc--=157386 inv=112171
[DSB @ 1700000 calls] bc=12 isBypassOn=false| real=575193 virt=140986 notrack=983820 | touchRes=196175(eff=154334,ineff=41841) resetRes=12589(ineff=8078,eff=4511) | bc++=49919 bc--=158845 inv=120863
[DSB @ 1800000 calls] bc=0 isBypassOn=true| real=592506 virt=151275 notrack=1056218 | touchRes=202782(eff=158005,ineff=44777) resetRes=13316(ineff=8365,eff=4951) | bc++=53142 bc--=162956 inv=128154
Exiting @ tick 28386969517500 because a thread reached the max instruction count
