warn: The `get_runtime_isa` function is deprecated. Please migrate away from using this function.
warn: The se.py script is deprecated. It will be removed in future releases of  gem5.
warn: The `get_runtime_isa` function is deprecated. Please migrate away from using this function.
Global frequency set at 1000000000000 ticks per second
src/base/statistics.hh:279: warn: One of the stats is a legacy stat. Legacy stat is a stat that does not belong to any statistics::Group. Legacy stat is deprecated.
src/base/remote_gdb.cc:418: warn: Sockets disabled, not accepting gdb connections
src/sim/process.cc:396: warn: Checkpoints for pipes, device drivers and sockets do not work.
gem5 Simulator System.  https://www.gem5.org
gem5 is copyrighted software; use the --copyright option for details.

gem5 version 23.0.0.1
gem5 compiled Apr  6 2026 01:50:35
gem5 started Apr  6 2026 09:37:51
gem5 executing on b49ce2a326be, pid 174620
command line: /opt/gem5/build/X86/gem5.opt --outdir=/workspace/results_l3/2MB/policy0Config1/gcc /workspace/configs/run_spec_l3.py --rp-type=DSBRP --l3-size=2MB --l3-assoc=16 --cpu-type=DerivO3CPU --cmd=./sgcc_base.gem5-x86 '--options=gcc-pp.c -O5 -fipa-pta -o gcc-pp.opts-O5_-fipa-pta.s' --mem-size=8GB --maxinst=250000000 --caches --l2cache --l1d_size=32kB --l1i_size=32kB --l1d_assoc=8 --l1i_assoc=8 --l2_size=256kB --l2_assoc=8 --checkpoint-restore=1 --checkpoint-dir=/workspace/checkpoints/gcc/m5out --restore-with-cpu=AtomicSimpleCPU --standard-switch=1 --warmup-insts=50000000 --dsb-enable-bypass=true --dsb-enable-aging=false --dsb-bypass-counter=6 --dsb-virtual-bypass-counter=4 --dsb-random-promotion=0 --dsb-minimum-bypass-counter=8

info: Standard input is not a terminal, disabling listeners.
Replacement policy: DSBRP
L1I size: 32kB, assoc: 8
L1D size: 32kB, assoc: 8
L2 size: 256kB, assoc: 8
L3 size: 2MB, L3 assoc: 16
Switch at instruction count:1
src/sim/simulate.cc:194: info: Entering event queue @ 27766339396500.  Starting simulation...
src/sim/simulate.cc:194: info: Entering event queue @ 27766339398500.  Starting simulation...
src/sim/power_state.cc:105: warn: PowerState: Already in the requested power state, request ignored
Switched CPUS @ tick 27766339398500
switching cpus
Switch at instruction count:50000000
src/sim/simulate.cc:194: info: Entering event queue @ 27766339399000.  Starting simulation...
[DSB @ 100000 calls] bc=8 isBypassOn=false| real=7316 virt=5759 notrack=86924 | touchRes=5232(eff=1897,ineff=3335) resetRes=1885(ineff=1404,eff=481) | bc++=4739 bc--=2378 inv=3205
src/sim/simulate.cc:194: info: Entering event queue @ 27882517498500.  Starting simulation...
Switching CPUS @ tick 27882517498500
Simulation ends instruction count:250000000
switching cpus
**** REAL SIMULATION ****
src/sim/simulate.cc:194: info: Entering event queue @ 27882517841000.  Starting simulation...
[DSB @ 200000 calls] bc=8 isBypassOn=true| real=12408 virt=11675 notrack=175916 | touchRes=9502(eff=3367,ineff=6135) resetRes=3857(ineff=2580,eff=1277) | bc++=8715 bc--=4644 inv=6466
[DSB @ 300000 calls] bc=8 isBypassOn=false| real=22208 virt=17358 notrack=260433 | touchRes=13875(eff=5490,ineff=8385) resetRes=5763(ineff=3806,eff=1957) | bc++=12191 bc--=7447 inv=11406
[DSB @ 400000 calls] bc=8 isBypassOn=false| real=42026 virt=22320 notrack=335653 | touchRes=20097(eff=9888,ineff=10209) resetRes=8522(ineff=5976,eff=2546) | bc++=16185 bc--=12434 inv=17774
[DSB @ 500000 calls] bc=8 isBypassOn=false| real=45674 virt=28297 notrack=426028 | touchRes=23882(eff=10794,ineff=13088) resetRes=10438(ineff=7116,eff=3322) | bc++=20204 bc--=14116 inv=21141
Exiting @ tick 28056585701500 because a thread reached the max instruction count
