warn: The `get_runtime_isa` function is deprecated. Please migrate away from using this function.
warn: The se.py script is deprecated. It will be removed in future releases of  gem5.
warn: The `get_runtime_isa` function is deprecated. Please migrate away from using this function.
Global frequency set at 1000000000000 ticks per second
src/base/statistics.hh:279: warn: One of the stats is a legacy stat. Legacy stat is a stat that does not belong to any statistics::Group. Legacy stat is deprecated.
src/base/remote_gdb.cc:418: warn: Sockets disabled, not accepting gdb connections
src/sim/process.cc:396: warn: Checkpoints for pipes, device drivers and sockets do not work.
gem5 Simulator System.  https://www.gem5.org
gem5 is copyrighted software; use the --copyright option for details.

gem5 version 23.0.0.1
gem5 compiled Apr  6 2026 01:50:35
gem5 started Apr  6 2026 01:52:16
gem5 executing on b49ce2a326be, pid 93424
command line: /opt/gem5/build/X86/gem5.opt --outdir=/workspace/results_l3/1MB/policy0Config1/gcc /workspace/configs/run_spec_l3.py --rp-type=DSBRP --l3-size=1MB --l3-assoc=16 --cpu-type=DerivO3CPU --cmd=./sgcc_base.gem5-x86 '--options=gcc-pp.c -O5 -fipa-pta -o gcc-pp.opts-O5_-fipa-pta.s' --mem-size=8GB --maxinst=250000000 --caches --l2cache --l1d_size=32kB --l1i_size=32kB --l1d_assoc=8 --l1i_assoc=8 --l2_size=256kB --l2_assoc=8 --checkpoint-restore=1 --checkpoint-dir=/workspace/checkpoints/gcc/m5out --restore-with-cpu=AtomicSimpleCPU --standard-switch=1 --warmup-insts=50000000 --dsb-enable-bypass=true --dsb-enable-aging=false --dsb-bypass-counter=6 --dsb-virtual-bypass-counter=4 --dsb-random-promotion=0 --dsb-minimum-bypass-counter=8

info: Standard input is not a terminal, disabling listeners.
Replacement policy: DSBRP
L1I size: 32kB, assoc: 8
L1D size: 32kB, assoc: 8
L2 size: 256kB, assoc: 8
L3 size: 1MB, L3 assoc: 16
Switch at instruction count:1
src/sim/simulate.cc:194: info: Entering event queue @ 27766339396500.  Starting simulation...
src/sim/simulate.cc:194: info: Entering event queue @ 27766339398500.  Starting simulation...
src/sim/power_state.cc:105: warn: PowerState: Already in the requested power state, request ignored
Switched CPUS @ tick 27766339398500
switching cpus
Switch at instruction count:50000000
src/sim/simulate.cc:194: info: Entering event queue @ 27766339399000.  Starting simulation...
[DSB @ 100000 calls] bc=8 isBypassOn=true| real=17554 virt=5144 notrack=77301 | touchRes=4412(eff=2940,ineff=1472) resetRes=1432(ineff=1074,eff=358) | bc++=2546 bc--=3298 inv=6970
[DSB @ 200000 calls] bc=8 isBypassOn=false| real=60316 virt=8613 notrack=131070 | touchRes=10315(eff=8449,ineff=1866) resetRes=3938(ineff=3319,eff=619) | bc++=5185 bc--=9068 inv=18097
src/sim/simulate.cc:194: info: Entering event queue @ 27889179233500.  Starting simulation...
Switching CPUS @ tick 27889179233500
Simulation ends instruction count:250000000
switching cpus
**** REAL SIMULATION ****
src/sim/simulate.cc:194: info: Entering event queue @ 27889179444500.  Starting simulation...
[DSB @ 300000 calls] bc=0 isBypassOn=true| real=87478 virt=13184 notrack=199337 | touchRes=14543(eff=11996,ineff=2547) resetRes=6144(ineff=5161,eff=983) | bc++=7708 bc--=12979 inv=27034
[DSB @ 400000 calls] bc=6 isBypassOn=true| real=110189 virt=18000 notrack=271810 | touchRes=19299(eff=15797,ineff=3502) resetRes=8726(ineff=7269,eff=1457) | bc++=10771 bc--=17254 inv=35268
[DSB @ 500000 calls] bc=5 isBypassOn=true| real=145280 virt=22122 notrack=332597 | touchRes=24286(eff=20068,ineff=4218) resetRes=10922(ineff=9062,eff=1860) | bc++=13280 bc--=21928 inv=44266
[DSB @ 600000 calls] bc=8 isBypassOn=false| real=186697 virt=25712 notrack=387590 | touchRes=30100(eff=25335,ineff=4765) resetRes=12849(ineff=10775,eff=2074) | bc++=15540 bc--=27409 inv=53187
[DSB @ 700000 calls] bc=1 isBypassOn=true| real=222261 virt=29775 notrack=447963 | touchRes=36123(eff=30677,ineff=5446) resetRes=15840(ineff=13415,eff=2425) | bc++=18861 bc--=33102 inv=64679
[DSB @ 800000 calls] bc=8 isBypassOn=false| real=269067 virt=33222 notrack=497710 | touchRes=41119(eff=35282,ineff=5837) resetRes=17468(ineff=14795,eff=2673) | bc++=20632 bc--=37955 inv=73842
[DSB @ 900000 calls] bc=0 isBypassOn=true| real=301892 virt=37483 notrack=560624 | touchRes=45664(eff=39243,ineff=6421) resetRes=18848(ineff=15964,eff=2884) | bc++=22385 bc--=42127 inv=82168
[DSB @ 1000000 calls] bc=8 isBypassOn=false| real=334529 virt=41700 notrack=623770 | touchRes=51452(eff=44364,ineff=7088) resetRes=21228(ineff=18005,eff=3223) | bc++=25093 bc--=47587 inv=92817
[DSB @ 1100000 calls] bc=0 isBypassOn=true| real=376902 virt=45280 notrack=677817 | touchRes=58289(eff=50716,ineff=7573) resetRes=24146(ineff=20647,eff=3499) | bc++=28220 bc--=54215 inv=104709
[DSB @ 1200000 calls] bc=8 isBypassOn=false| real=392509 virt=50560 notrack=756930 | touchRes=62263(eff=53642,ineff=8621) resetRes=26190(ineff=22210,eff=3980) | bc++=30831 bc--=57622 inv=112763
[DSB @ 1300000 calls] bc=5 isBypassOn=true| real=402918 virt=56246 notrack=840835 | touchRes=65524(eff=55705,ineff=9819) resetRes=28260(ineff=23681,eff=4579) | bc++=33500 bc--=60284 inv=119673
Exiting @ tick 28089430198000 because a thread reached the max instruction count
