warn: The `get_runtime_isa` function is deprecated. Please migrate away from using this function.
warn: The se.py script is deprecated. It will be removed in future releases of  gem5.
warn: The `get_runtime_isa` function is deprecated. Please migrate away from using this function.
Global frequency set at 1000000000000 ticks per second
src/mem/dram_interface.cc:690: warn: DRAM device capacity (8192 Mbytes) does not match the address range assigned (16384 Mbytes)
src/base/statistics.hh:279: warn: One of the stats is a legacy stat. Legacy stat is a stat that does not belong to any statistics::Group. Legacy stat is deprecated.
src/base/remote_gdb.cc:418: warn: Sockets disabled, not accepting gdb connections
src/sim/process.cc:396: warn: Checkpoints for pipes, device drivers and sockets do not work.
gem5 Simulator System.  https://www.gem5.org
gem5 is copyrighted software; use the --copyright option for details.

gem5 version 23.0.0.1
gem5 compiled Apr  6 2026 01:50:35
gem5 started Apr  6 2026 11:52:08
gem5 executing on b49ce2a326be, pid 199513
command line: /opt/gem5/build/X86/gem5.opt --outdir=/workspace/results_l3/2MB/policy0Config2/roms /workspace/configs/run_spec_l3.py --rp-type=DSBRP --l3-size=2MB --l3-assoc=16 --cpu-type=DerivO3CPU --cmd=./sroms_base.gem5-x86 --options= --mem-size=16GB --maxinst=250000000 --caches --l2cache --l1d_size=32kB --l1i_size=32kB --l1d_assoc=8 --l1i_assoc=8 --l2_size=256kB --l2_assoc=8 --checkpoint-restore=1 --checkpoint-dir=/workspace/checkpoints/roms/m5out --restore-with-cpu=AtomicSimpleCPU --standard-switch=1 --warmup-insts=50000000 --input=ocean_benchmark3.in --dsb-enable-bypass=true --dsb-enable-aging=false --dsb-bypass-counter=6 --dsb-virtual-bypass-counter=3 --dsb-random-promotion=0 --dsb-minimum-bypass-counter=12

info: Standard input is not a terminal, disabling listeners.
Replacement policy: DSBRP
L1I size: 32kB, assoc: 8
L1D size: 32kB, assoc: 8
L2 size: 256kB, assoc: 8
L3 size: 2MB, L3 assoc: 16
Switch at instruction count:1
src/sim/simulate.cc:194: info: Entering event queue @ 26962283379000.  Starting simulation...
src/sim/power_state.cc:105: warn: PowerState: Already in the requested power state, request ignored
Switched CPUS @ tick 26962283380500
switching cpus
Switch at instruction count:50000000
src/sim/simulate.cc:194: info: Entering event queue @ 26962283380500.  Starting simulation...
[DSB @ 100000 calls] bc=0 isBypassOn=true| real=26788 virt=9148 notrack=64063 | touchRes=8427(eff=4595,ineff=3832) resetRes=1650(ineff=1020,eff=630) | bc++=4852 bc--=5225 inv=8172
[DSB @ 200000 calls] bc=5 isBypassOn=true| real=64268 virt=16905 notrack=118826 | touchRes=16274(eff=10869,ineff=5405) resetRes=3910(ineff=2596,eff=1314) | bc++=8001 bc--=12183 inv=21271
[DSB @ 300000 calls] bc=12 isBypassOn=false| real=99652 virt=24969 notrack=175378 | touchRes=23471(eff=16584,ineff=6887) resetRes=6407(ineff=4374,eff=2033) | bc++=11261 bc--=18617 inv=34877
src/sim/simulate.cc:194: info: Entering event queue @ 27107523429500.  Starting simulation...
Switching CPUS @ tick 27107523429500
Simulation ends instruction count:250000000
switching cpus
**** REAL SIMULATION ****
src/sim/simulate.cc:194: info: Entering event queue @ 27107523694500.  Starting simulation...
[DSB @ 400000 calls] bc=1 isBypassOn=true| real=131309 virt=33510 notrack=235180 | touchRes=30748(eff=22072,ineff=8676) resetRes=8674(ineff=5906,eff=2768) | bc++=14582 bc--=24840 inv=47871
[DSB @ 500000 calls] bc=0 isBypassOn=true| real=160368 virt=42584 notrack=297047 | touchRes=37335(eff=26672,ineff=10663) resetRes=10601(ineff=7025,eff=3576) | bc++=17688 bc--=30248 inv=59783
[DSB @ 600000 calls] bc=0 isBypassOn=true| real=199038 virt=50264 notrack=350697 | touchRes=44592(eff=32738,ineff=11854) resetRes=12793(ineff=8475,eff=4318) | bc++=20329 bc--=37056 inv=72838
[DSB @ 700000 calls] bc=0 isBypassOn=true| real=231675 virt=58570 notrack=409754 | touchRes=51118(eff=37334,ineff=13784) resetRes=14960(ineff=9775,eff=5185) | bc++=23559 bc--=42519 inv=85001
[DSB @ 800000 calls] bc=12 isBypassOn=true| real=261080 virt=67478 notrack=471441 | touchRes=57380(eff=41779,ineff=15601) resetRes=16971(ineff=10999,eff=5972) | bc++=26600 bc--=47751 inv=97349
[DSB @ 900000 calls] bc=12 isBypassOn=true| real=305479 virt=74411 notrack=520109 | touchRes=65346(eff=48301,ineff=17045) resetRes=19497(ineff=12806,eff=6691) | bc++=29851 bc--=54992 inv=110343
[DSB @ 1000000 calls] bc=0 isBypassOn=true| real=344177 virt=82093 notrack=573729 | touchRes=73273(eff=54524,ineff=18749) resetRes=21636(ineff=14258,eff=7378) | bc++=33007 bc--=61902 inv=122965
[DSB @ 1100000 calls] bc=12 isBypassOn=false| real=376560 virt=90584 notrack=632855 | touchRes=80594(eff=60081,ineff=20513) resetRes=23799(ineff=15630,eff=8169) | bc++=36143 bc--=68250 inv=136064
[DSB @ 1200000 calls] bc=12 isBypassOn=false| real=415007 virt=98182 notrack=686810 | touchRes=88464(eff=66309,ineff=22155) resetRes=26318(ineff=17308,eff=9010) | bc++=39463 bc--=75319 inv=148433
[DSB @ 1300000 calls] bc=2 isBypassOn=true| real=440206 virt=107581 notrack=752212 | touchRes=94787(eff=70491,ineff=24296) resetRes=28352(ineff=18516,eff=9836) | bc++=42812 bc--=80327 inv=159964
[DSB @ 1400000 calls] bc=0 isBypassOn=true| real=480554 virt=115048 notrack=804397 | touchRes=102769(eff=76905,ineff=25864) resetRes=30892(ineff=20324,eff=10568) | bc++=46188 bc--=87473 inv=172412
[DSB @ 1500000 calls] bc=12 isBypassOn=true| real=517030 virt=122936 notrack=860033 | touchRes=110174(eff=82655,ineff=27519) resetRes=33552(ineff=22246,eff=11306) | bc++=49765 bc--=93961 inv=186447
[DSB @ 1600000 calls] bc=2 isBypassOn=true| real=543570 virt=132165 notrack=924264 | touchRes=116976(eff=87418,ineff=29558) resetRes=35707(ineff=23544,eff=12163) | bc++=53102 bc--=99581 inv=197892
[DSB @ 1700000 calls] bc=1 isBypassOn=true| real=584448 virt=139399 notrack=976152 | touchRes=124927(eff=93802,ineff=31125) resetRes=38164(ineff=25231,eff=12933) | bc++=56356 bc--=106735 inv=211050
[DSB @ 1800000 calls] bc=0 isBypassOn=true| real=621974 virt=147144 notrack=1030881 | touchRes=132939(eff=100115,ineff=32824) resetRes=40660(ineff=27002,eff=13658) | bc++=59826 bc--=113773 inv=223926
[DSB @ 1900000 calls] bc=1 isBypassOn=true| real=662158 virt=154776 notrack=1083065 | touchRes=142055(eff=107458,ineff=34597) resetRes=43524(ineff=29125,eff=14399) | bc++=63722 bc--=121857 inv=237355
[DSB @ 2000000 calls] bc=11 isBypassOn=true| real=701415 virt=162417 notrack=1136167 | touchRes=150460(eff=114353,ineff=36107) resetRes=46165(ineff=31038,eff=15127) | bc++=67145 bc--=129480 inv=251002
Exiting @ tick 27243662066000 because a thread reached the max instruction count
