warn: The `get_runtime_isa` function is deprecated. Please migrate away from using this function.
warn: The se.py script is deprecated. It will be removed in future releases of  gem5.
warn: The `get_runtime_isa` function is deprecated. Please migrate away from using this function.
Global frequency set at 1000000000000 ticks per second
src/base/statistics.hh:279: warn: One of the stats is a legacy stat. Legacy stat is a stat that does not belong to any statistics::Group. Legacy stat is deprecated.
src/base/remote_gdb.cc:418: warn: Sockets disabled, not accepting gdb connections
src/sim/process.cc:396: warn: Checkpoints for pipes, device drivers and sockets do not work.
gem5 Simulator System.  https://www.gem5.org
gem5 is copyrighted software; use the --copyright option for details.

gem5 version 23.0.0.1
gem5 compiled Apr  6 2026 01:50:35
gem5 started Apr  6 2026 03:30:04
gem5 executing on b49ce2a326be, pid 112647
command line: /opt/gem5/build/X86/gem5.opt --outdir=/workspace/results_l3/1MB/policy0Config2/x264 /workspace/configs/run_spec_l3.py --rp-type=DSBRP --l3-size=1MB --l3-assoc=16 --cpu-type=DerivO3CPU --cmd=./x264_s_base.gem5-x86 '--options=--pass 1 --stats x264_stats.log --bitrate 1000 --frames 1000 -o BuckBunny_New.264 BuckBunny.yuv 1280x720' --mem-size=8GB --maxinst=250000000 --caches --l2cache --l1d_size=32kB --l1i_size=32kB --l1d_assoc=8 --l1i_assoc=8 --l2_size=256kB --l2_assoc=8 --checkpoint-restore=1 --checkpoint-dir=/workspace/checkpoints/x264/m5out --restore-with-cpu=AtomicSimpleCPU --standard-switch=1 --warmup-insts=50000000 --dsb-enable-bypass=true --dsb-enable-aging=false --dsb-bypass-counter=6 --dsb-virtual-bypass-counter=3 --dsb-random-promotion=0 --dsb-minimum-bypass-counter=12

info: Standard input is not a terminal, disabling listeners.
Replacement policy: DSBRP
L1I size: 32kB, assoc: 8
L1D size: 32kB, assoc: 8
L2 size: 256kB, assoc: 8
L3 size: 1MB, L3 assoc: 16
Switch at instruction count:1
src/sim/simulate.cc:194: info: Entering event queue @ 21878961284000.  Starting simulation...
src/sim/simulate.cc:194: info: Entering event queue @ 21878961285000.  Starting simulation...
src/sim/power_state.cc:105: warn: PowerState: Already in the requested power state, request ignored
Switched CPUS @ tick 21878961285000
switching cpus
Switch at instruction count:50000000
src/sim/simulate.cc:194: info: Entering event queue @ 21878961286000.  Starting simulation...
src/sim/simulate.cc:194: info: Entering event queue @ 21966711742500.  Starting simulation...
Switching CPUS @ tick 21966711742500
Simulation ends instruction count:250000000
switching cpus
**** REAL SIMULATION ****
src/sim/simulate.cc:194: info: Entering event queue @ 21966711917250.  Starting simulation...
[DSB @ 100000 calls] bc=12 isBypassOn=false| real=47943 virt=6470 notrack=45586 | touchRes=6276(eff=4624,ineff=1652) resetRes=1204(ineff=988,eff=216) | bc++=2640 bc--=4840 inv=8186
[DSB @ 200000 calls] bc=10 isBypassOn=true| real=47951 virt=18950 notrack=133098 | touchRes=6279(eff=4624,ineff=1655) resetRes=1209(ineff=988,eff=221) | bc++=2643 bc--=4845 inv=19086
[DSB @ 300000 calls] bc=0 isBypassOn=true| real=54645 virt=30583 notrack=214771 | touchRes=7053(eff=5356,ineff=1697) resetRes=1331(ineff=1066,eff=265) | bc++=2763 bc--=5621 inv=29758
[DSB @ 400000 calls] bc=12 isBypassOn=false| real=129240 virt=33832 notrack=236927 | touchRes=13646(eff=11850,ineff=1796) resetRes=2306(ineff=1985,eff=321) | bc++=3781 bc--=12171 inv=39533
Exiting @ tick 22082968539000 because a thread reached the max instruction count
