warn: The `get_runtime_isa` function is deprecated. Please migrate away from using this function.
warn: The se.py script is deprecated. It will be removed in future releases of  gem5.
warn: The `get_runtime_isa` function is deprecated. Please migrate away from using this function.
Global frequency set at 1000000000000 ticks per second
src/base/statistics.hh:279: warn: One of the stats is a legacy stat. Legacy stat is a stat that does not belong to any statistics::Group. Legacy stat is deprecated.
src/base/remote_gdb.cc:418: warn: Sockets disabled, not accepting gdb connections
src/sim/process.cc:396: warn: Checkpoints for pipes, device drivers and sockets do not work.
gem5 Simulator System.  https://www.gem5.org
gem5 is copyrighted software; use the --copyright option for details.

gem5 version 23.0.0.1
gem5 compiled Apr  6 2026 01:50:35
gem5 started Apr  6 2026 16:22:41
gem5 executing on b49ce2a326be, pid 248969
command line: /opt/gem5/build/X86/gem5.opt --outdir=/workspace/results_l3/2MB/policy1Config3/wrf /workspace/configs/run_spec_l3.py --rp-type=DSBRP --l3-size=2MB --l3-assoc=16 --cpu-type=DerivO3CPU --cmd=./wrf_s_base.gem5-x86 --options= --mem-size=8GB --maxinst=250000000 --caches --l2cache --l1d_size=32kB --l1i_size=32kB --l1d_assoc=8 --l1i_assoc=8 --l2_size=256kB --l2_assoc=8 --checkpoint-restore=1 --checkpoint-dir=/workspace/checkpoints/wrf/m5out --restore-with-cpu=AtomicSimpleCPU --standard-switch=1 --warmup-insts=50000000 --dsb-enable-bypass=true --dsb-enable-aging=true --dsb-bypass-counter=3 --dsb-virtual-bypass-counter=3 --dsb-random-promotion=4 --dsb-minimum-bypass-counter=12

info: Standard input is not a terminal, disabling listeners.
Replacement policy: DSBRP
L1I size: 32kB, assoc: 8
L1D size: 32kB, assoc: 8
L2 size: 256kB, assoc: 8
L3 size: 2MB, L3 assoc: 16
Switch at instruction count:1
src/sim/simulate.cc:194: info: Entering event queue @ 27778733914000.  Starting simulation...
src/sim/simulate.cc:194: info: Entering event queue @ 27778733915500.  Starting simulation...
src/sim/power_state.cc:105: warn: PowerState: Already in the requested power state, request ignored
Switched CPUS @ tick 27778733915500
switching cpus
Switch at instruction count:50000000
src/sim/simulate.cc:194: info: Entering event queue @ 27778733916000.  Starting simulation...
[DSB @ 100000 calls] bc=12 isBypassOn=false| real=25381 virt=9293 notrack=65325 | touchRes=19106(eff=12658,ineff=6448) resetRes=564(ineff=99,eff=465) | bc++=6547 bc--=13123 inv=1811
[DSB @ 200000 calls] bc=12 isBypassOn=false| real=25381 virt=21914 notrack=152704 | touchRes=28967(eff=12658,ineff=16309) resetRes=642(ineff=99,eff=543) | bc++=16408 bc--=13201 inv=1815
[DSB @ 300000 calls] bc=12 isBypassOn=false| real=25382 virt=34575 notrack=240042 | touchRes=39079(eff=12658,ineff=26421) resetRes=785(ineff=99,eff=686) | bc++=26520 bc--=13344 inv=1825
[DSB @ 400000 calls] bc=12 isBypassOn=false| real=25387 virt=47345 notrack=327267 | touchRes=49609(eff=12659,ineff=36950) resetRes=1096(ineff=99,eff=997) | bc++=37049 bc--=13656 inv=1876
[DSB @ 500000 calls] bc=12 isBypassOn=false| real=25389 virt=59886 notrack=414724 | touchRes=59920(eff=12659,ineff=47261) resetRes=1370(ineff=101,eff=1269) | bc++=47362 bc--=13928 inv=1969
src/sim/simulate.cc:194: info: Entering event queue @ 27935408355500.  Starting simulation...
Switching CPUS @ tick 27935408355500
Simulation ends instruction count:250000000
switching cpus
**** REAL SIMULATION ****
src/sim/simulate.cc:194: info: Entering event queue @ 27935408481750.  Starting simulation...
[DSB @ 600000 calls] bc=12 isBypassOn=false| real=25422 virt=72290 notrack=502287 | touchRes=70386(eff=12662,ineff=57724) resetRes=1795(ineff=101,eff=1694) | bc++=57825 bc--=14356 inv=2210
[DSB @ 700000 calls] bc=12 isBypassOn=false| real=25439 virt=84818 notrack=589742 | touchRes=80689(eff=12664,ineff=68025) resetRes=2091(ineff=101,eff=1990) | bc++=68126 bc--=14654 inv=2379
[DSB @ 800000 calls] bc=12 isBypassOn=false| real=25457 virt=97325 notrack=677217 | touchRes=90897(eff=12666,ineff=78231) resetRes=2554(ineff=103,eff=2451) | bc++=78334 bc--=15117 inv=2619
[DSB @ 900000 calls] bc=12 isBypassOn=false| real=25463 virt=109644 notrack=764892 | touchRes=100989(eff=12666,ineff=88323) resetRes=2793(ineff=103,eff=2690) | bc++=88426 bc--=15356 inv=2737
[DSB @ 1000000 calls] bc=12 isBypassOn=false| real=25491 virt=122197 notrack=852311 | touchRes=111347(eff=12668,ineff=98679) resetRes=3253(ineff=103,eff=3150) | bc++=98782 bc--=15818 inv=3040
[DSB @ 1100000 calls] bc=12 isBypassOn=false| real=25492 virt=134570 notrack=939937 | touchRes=120565(eff=12668,ineff=107897) resetRes=3629(ineff=103,eff=3526) | bc++=108000 bc--=16194 inv=3261
[DSB @ 1200000 calls] bc=12 isBypassOn=false| real=25496 virt=147023 notrack=1027480 | touchRes=130331(eff=12668,ineff=117663) resetRes=3739(ineff=103,eff=3636) | bc++=117766 bc--=16304 inv=3289
[DSB @ 1300000 calls] bc=12 isBypassOn=false| real=25496 virt=159452 notrack=1115051 | touchRes=139818(eff=12668,ineff=127150) resetRes=3739(ineff=103,eff=3636) | bc++=127253 bc--=16304 inv=3293
[DSB @ 1400000 calls] bc=12 isBypassOn=false| real=25496 virt=171828 notrack=1202675 | touchRes=149803(eff=12668,ineff=137135) resetRes=3741(ineff=103,eff=3638) | bc++=137238 bc--=16306 inv=3294
[DSB @ 1500000 calls] bc=12 isBypassOn=false| real=25496 virt=184266 notrack=1290237 | touchRes=159443(eff=12668,ineff=146775) resetRes=3827(ineff=103,eff=3724) | bc++=146878 bc--=16392 inv=3320
[DSB @ 1600000 calls] bc=12 isBypassOn=false| real=25496 virt=196910 notrack=1377593 | touchRes=170392(eff=12668,ineff=157724) resetRes=3847(ineff=103,eff=3744) | bc++=157827 bc--=16412 inv=3344
[DSB @ 1700000 calls] bc=12 isBypassOn=false| real=25496 virt=209444 notrack=1465059 | touchRes=181581(eff=12668,ineff=168913) resetRes=3903(ineff=103,eff=3800) | bc++=169016 bc--=16468 inv=3416
[DSB @ 1800000 calls] bc=12 isBypassOn=false| real=25543 virt=221962 notrack=1552494 | touchRes=191048(eff=12679,ineff=178369) resetRes=4677(ineff=104,eff=4573) | bc++=178473 bc--=17252 inv=3961
[DSB @ 1900000 calls] bc=12 isBypassOn=false| real=25543 virt=234474 notrack=1639982 | touchRes=201311(eff=12679,ineff=188632) resetRes=4703(ineff=104,eff=4599) | bc++=188736 bc--=17278 inv=3979
Exiting @ tick 28095212368000 because a thread reached the max instruction count
