warn: The `get_runtime_isa` function is deprecated. Please migrate away from using this function.
warn: The se.py script is deprecated. It will be removed in future releases of  gem5.
warn: The `get_runtime_isa` function is deprecated. Please migrate away from using this function.
Global frequency set at 1000000000000 ticks per second
src/base/statistics.hh:279: warn: One of the stats is a legacy stat. Legacy stat is a stat that does not belong to any statistics::Group. Legacy stat is deprecated.
src/base/remote_gdb.cc:418: warn: Sockets disabled, not accepting gdb connections
src/sim/process.cc:396: warn: Checkpoints for pipes, device drivers and sockets do not work.
gem5 Simulator System.  https://www.gem5.org
gem5 is copyrighted software; use the --copyright option for details.

gem5 version 23.0.0.1
gem5 compiled Apr  6 2026 01:50:35
gem5 started Apr  6 2026 14:18:09
gem5 executing on b49ce2a326be, pid 226465
command line: /opt/gem5/build/X86/gem5.opt --outdir=/workspace/results_l3/2MB/policy1Config1/pop2 /workspace/configs/run_spec_l3.py --rp-type=DSBRP --l3-size=2MB --l3-assoc=16 --cpu-type=DerivO3CPU --cmd=./speed_pop2_base.gem5-x86 --options= --mem-size=8GB --maxinst=250000000 --caches --l2cache --l1d_size=32kB --l1i_size=32kB --l1d_assoc=8 --l1i_assoc=8 --l2_size=256kB --l2_assoc=8 --checkpoint-restore=1 --checkpoint-dir=/workspace/checkpoints/pop2/m5out --restore-with-cpu=AtomicSimpleCPU --standard-switch=1 --warmup-insts=50000000 --dsb-enable-bypass=false --dsb-enable-aging=true --dsb-bypass-counter=6 --dsb-virtual-bypass-counter=4 --dsb-random-promotion=0 --dsb-minimum-bypass-counter=8

info: Standard input is not a terminal, disabling listeners.
Replacement policy: DSBRP
L1I size: 32kB, assoc: 8
L1D size: 32kB, assoc: 8
L2 size: 256kB, assoc: 8
L3 size: 2MB, L3 assoc: 16
Switch at instruction count:1
src/sim/simulate.cc:194: info: Entering event queue @ 28375057083500.  Starting simulation...
src/sim/simulate.cc:194: info: Entering event queue @ 28375057085000.  Starting simulation...
src/sim/power_state.cc:105: warn: PowerState: Already in the requested power state, request ignored
Switched CPUS @ tick 28375057085000
switching cpus
Switch at instruction count:50000000
src/sim/simulate.cc:194: info: Entering event queue @ 28375057086000.  Starting simulation...
[DSB @ 100000 calls] bc=8 isBypassOn=false| real=0 virt=6236 notrack=93763 | touchRes=5713(eff=0,ineff=5713) resetRes=5(ineff=0,eff=5) | bc++=5713 bc--=5 inv=1
src/sim/simulate.cc:194: info: Entering event queue @ 28514093310500.  Starting simulation...
Switching CPUS @ tick 28514093310500
Simulation ends instruction count:250000000
switching cpus
**** REAL SIMULATION ****
src/sim/simulate.cc:194: info: Entering event queue @ 28514093463000.  Starting simulation...
[DSB @ 200000 calls] bc=8 isBypassOn=false| real=0 virt=12524 notrack=187475 | touchRes=11749(eff=0,ineff=11749) resetRes=5(ineff=0,eff=5) | bc++=11749 bc--=5 inv=1
[DSB @ 300000 calls] bc=8 isBypassOn=false| real=0 virt=18759 notrack=281240 | touchRes=17574(eff=0,ineff=17574) resetRes=10(ineff=0,eff=10) | bc++=17574 bc--=10 inv=5
[DSB @ 400000 calls] bc=8 isBypassOn=false| real=0 virt=25065 notrack=374934 | touchRes=23286(eff=0,ineff=23286) resetRes=170(ineff=0,eff=170) | bc++=23286 bc--=170 inv=57
[DSB @ 500000 calls] bc=8 isBypassOn=false| real=0 virt=31373 notrack=468626 | touchRes=28686(eff=0,ineff=28686) resetRes=271(ineff=0,eff=271) | bc++=28686 bc--=271 inv=134
[DSB @ 600000 calls] bc=8 isBypassOn=true| real=0 virt=37614 notrack=562385 | touchRes=34204(eff=0,ineff=34204) resetRes=515(ineff=0,eff=515) | bc++=34204 bc--=515 inv=228
[DSB @ 700000 calls] bc=8 isBypassOn=false| real=0 virt=43917 notrack=656082 | touchRes=39469(eff=0,ineff=39469) resetRes=784(ineff=0,eff=784) | bc++=39469 bc--=784 inv=356
[DSB @ 800000 calls] bc=8 isBypassOn=false| real=0 virt=50337 notrack=749662 | touchRes=45773(eff=0,ineff=45773) resetRes=795(ineff=0,eff=795) | bc++=45773 bc--=795 inv=367
[DSB @ 900000 calls] bc=8 isBypassOn=false| real=0 virt=56598 notrack=843401 | touchRes=51746(eff=0,ineff=51746) resetRes=799(ineff=0,eff=799) | bc++=51746 bc--=799 inv=373
[DSB @ 1000000 calls] bc=8 isBypassOn=false| real=0 virt=62885 notrack=937114 | touchRes=57426(eff=0,ineff=57426) resetRes=879(ineff=0,eff=879) | bc++=57426 bc--=879 inv=412
[DSB @ 1100000 calls] bc=8 isBypassOn=false| real=0 virt=69097 notrack=1030902 | touchRes=62841(eff=0,ineff=62841) resetRes=1086(ineff=0,eff=1086) | bc++=62841 bc--=1086 inv=538
Exiting @ tick 28683171597500 because a thread reached the max instruction count
