warn: The `get_runtime_isa` function is deprecated. Please migrate away from using this function.
warn: The se.py script is deprecated. It will be removed in future releases of  gem5.
warn: The `get_runtime_isa` function is deprecated. Please migrate away from using this function.
Global frequency set at 1000000000000 ticks per second
src/mem/dram_interface.cc:690: warn: DRAM device capacity (8192 Mbytes) does not match the address range assigned (16384 Mbytes)
src/base/statistics.hh:279: warn: One of the stats is a legacy stat. Legacy stat is a stat that does not belong to any statistics::Group. Legacy stat is deprecated.
src/base/remote_gdb.cc:418: warn: Sockets disabled, not accepting gdb connections
src/sim/process.cc:396: warn: Checkpoints for pipes, device drivers and sockets do not work.
gem5 Simulator System.  https://www.gem5.org
gem5 is copyrighted software; use the --copyright option for details.

gem5 version 23.0.0.1
gem5 compiled Apr  6 2026 01:50:35
gem5 started Apr  6 2026 08:20:02
gem5 executing on b49ce2a326be, pid 161810
command line: /opt/gem5/build/X86/gem5.opt --outdir=/workspace/results_l3/1MB/policy1Config3/xz /workspace/configs/run_spec_l3.py --rp-type=DSBRP --l3-size=1MB --l3-assoc=16 --cpu-type=DerivO3CPU --cmd=./xz_s_base.gem5-x86 '--options=cpu2006docs.tar.xz 6643 055ce243071129412e9dd0b3b69a21654033a9b723d874b2015c774fac1553d9713be561ca86f74e4f16f22e664fc17a79f30caa5ad2c04fbc447549c2810fae 1036078272 1111795472 4' --mem-size=16GB --maxinst=250000000 --caches --l2cache --l1d_size=32kB --l1i_size=32kB --l1d_assoc=8 --l1i_assoc=8 --l2_size=256kB --l2_assoc=8 --checkpoint-restore=1 --checkpoint-dir=/workspace/checkpoints/xz/m5out --restore-with-cpu=AtomicSimpleCPU --standard-switch=1 --warmup-insts=50000000 --dsb-enable-bypass=true --dsb-enable-aging=true --dsb-bypass-counter=3 --dsb-virtual-bypass-counter=3 --dsb-random-promotion=4 --dsb-minimum-bypass-counter=12

info: Standard input is not a terminal, disabling listeners.
Replacement policy: DSBRP
L1I size: 32kB, assoc: 8
L1D size: 32kB, assoc: 8
L2 size: 256kB, assoc: 8
L3 size: 1MB, L3 assoc: 16
Switch at instruction count:1
src/sim/simulate.cc:194: info: Entering event queue @ 21814062765500.  Starting simulation...
src/sim/power_state.cc:105: warn: PowerState: Already in the requested power state, request ignored
Switched CPUS @ tick 21814062766500
switching cpus
Switch at instruction count:50000000
src/sim/simulate.cc:194: info: Entering event queue @ 21814062766500.  Starting simulation...
src/sim/simulate.cc:194: info: Entering event queue @ 21890716034500.  Starting simulation...
Switching CPUS @ tick 21890716034500
Simulation ends instruction count:250000000
switching cpus
**** REAL SIMULATION ****
src/sim/simulate.cc:194: info: Entering event queue @ 21890716037500.  Starting simulation...
[DSB @ 100000 calls] bc=0 isBypassOn=true| real=93982 virt=729 notrack=5288 | touchRes=161(eff=63,ineff=98) resetRes=0(ineff=0,eff=0) | bc++=98 bc--=63 inv=0
Exiting @ tick 21955756398500 because a thread reached the max instruction count
