warn: The `get_runtime_isa` function is deprecated. Please migrate away from using this function.
warn: The se.py script is deprecated. It will be removed in future releases of  gem5.
warn: The `get_runtime_isa` function is deprecated. Please migrate away from using this function.
Global frequency set at 1000000000000 ticks per second
src/base/statistics.hh:279: warn: One of the stats is a legacy stat. Legacy stat is a stat that does not belong to any statistics::Group. Legacy stat is deprecated.
src/base/remote_gdb.cc:418: warn: Sockets disabled, not accepting gdb connections
src/sim/process.cc:396: warn: Checkpoints for pipes, device drivers and sockets do not work.
gem5 Simulator System.  https://www.gem5.org
gem5 is copyrighted software; use the --copyright option for details.

gem5 version 23.0.0.1
gem5 compiled Apr  6 2026 01:50:35
gem5 started Apr  6 2026 15:46:01
gem5 executing on b49ce2a326be, pid 242591
command line: /opt/gem5/build/X86/gem5.opt --outdir=/workspace/results_l3/2MB/policy1Config3/mcf /workspace/configs/run_spec_l3.py --rp-type=DSBRP --l3-size=2MB --l3-assoc=16 --cpu-type=DerivO3CPU --cmd=./mcf_s_base.gem5-x86 --options=inp.in --mem-size=8GB --maxinst=250000000 --caches --l2cache --l1d_size=32kB --l1i_size=32kB --l1d_assoc=8 --l1i_assoc=8 --l2_size=256kB --l2_assoc=8 --checkpoint-restore=1 --checkpoint-dir=/workspace/checkpoints/mcf/m5out --restore-with-cpu=AtomicSimpleCPU --standard-switch=1 --warmup-insts=50000000 --dsb-enable-bypass=true --dsb-enable-aging=true --dsb-bypass-counter=3 --dsb-virtual-bypass-counter=3 --dsb-random-promotion=4 --dsb-minimum-bypass-counter=12

info: Standard input is not a terminal, disabling listeners.
Replacement policy: DSBRP
L1I size: 32kB, assoc: 8
L1D size: 32kB, assoc: 8
L2 size: 256kB, assoc: 8
L3 size: 2MB, L3 assoc: 16
Switch at instruction count:1
src/sim/simulate.cc:194: info: Entering event queue @ 24065090964500.  Starting simulation...
src/sim/simulate.cc:194: info: Entering event queue @ 24065090965500.  Starting simulation...
src/sim/power_state.cc:105: warn: PowerState: Already in the requested power state, request ignored
Switched CPUS @ tick 24065090965500
switching cpus
Switch at instruction count:50000000
src/sim/simulate.cc:194: info: Entering event queue @ 24065090966000.  Starting simulation...
[DSB @ 100000 calls] bc=12 isBypassOn=false| real=296 virt=12402 notrack=87301 | touchRes=11015(eff=159,ineff=10856) resetRes=141(ineff=50,eff=91) | bc++=10906 bc--=250 inv=7
[DSB @ 200000 calls] bc=12 isBypassOn=true| real=297 virt=24893 notrack=174809 | touchRes=22378(eff=159,ineff=22219) resetRes=310(ineff=50,eff=260) | bc++=22269 bc--=419 inv=67
[DSB @ 300000 calls] bc=12 isBypassOn=false| real=298 virt=37542 notrack=262159 | touchRes=33577(eff=159,ineff=33418) resetRes=476(ineff=50,eff=426) | bc++=33468 bc--=585 inv=180
src/sim/simulate.cc:194: info: Entering event queue @ 24215674065500.  Starting simulation...
Switching CPUS @ tick 24215674065500
Simulation ends instruction count:250000000
switching cpus
**** REAL SIMULATION ****
src/sim/simulate.cc:194: info: Entering event queue @ 24215674189000.  Starting simulation...
[DSB @ 400000 calls] bc=12 isBypassOn=false| real=299 virt=50120 notrack=349580 | touchRes=44903(eff=159,ineff=44744) resetRes=626(ineff=50,eff=576) | bc++=44794 bc--=735 inv=332
[DSB @ 500000 calls] bc=12 isBypassOn=false| real=299 virt=62516 notrack=437184 | touchRes=56224(eff=159,ineff=56065) resetRes=766(ineff=50,eff=716) | bc++=56115 bc--=875 inv=460
[DSB @ 600000 calls] bc=12 isBypassOn=false| real=300 virt=74946 notrack=524753 | touchRes=67137(eff=159,ineff=66978) resetRes=927(ineff=50,eff=877) | bc++=67028 bc--=1036 inv=629
[DSB @ 700000 calls] bc=12 isBypassOn=false| real=302 virt=87403 notrack=612294 | touchRes=78203(eff=159,ineff=78044) resetRes=1088(ineff=50,eff=1038) | bc++=78094 bc--=1197 inv=805
[DSB @ 800000 calls] bc=12 isBypassOn=false| real=305 virt=99879 notrack=699815 | touchRes=89521(eff=159,ineff=89362) resetRes=1245(ineff=50,eff=1195) | bc++=89412 bc--=1354 inv=954
[DSB @ 900000 calls] bc=12 isBypassOn=false| real=308 virt=112387 notrack=787304 | touchRes=100595(eff=159,ineff=100436) resetRes=1383(ineff=50,eff=1333) | bc++=100486 bc--=1492 inv=1106
[DSB @ 1000000 calls] bc=12 isBypassOn=false| real=308 virt=124824 notrack=874867 | touchRes=111765(eff=159,ineff=111606) resetRes=1565(ineff=50,eff=1515) | bc++=111656 bc--=1674 inv=1266
[DSB @ 1100000 calls] bc=12 isBypassOn=false| real=310 virt=137438 notrack=962251 | touchRes=123130(eff=159,ineff=122971) resetRes=1734(ineff=50,eff=1684) | bc++=123021 bc--=1843 inv=1466
[DSB @ 1200000 calls] bc=12 isBypassOn=false| real=310 virt=150068 notrack=1049621 | touchRes=134150(eff=159,ineff=133991) resetRes=1909(ineff=50,eff=1859) | bc++=134041 bc--=2018 inv=1645
[DSB @ 1300000 calls] bc=12 isBypassOn=false| real=310 virt=162531 notrack=1137158 | touchRes=145381(eff=159,ineff=145222) resetRes=2070(ineff=50,eff=2020) | bc++=145272 bc--=2179 inv=1789
[DSB @ 1400000 calls] bc=12 isBypassOn=false| real=311 virt=174927 notrack=1224761 | touchRes=156512(eff=159,ineff=156353) resetRes=2240(ineff=51,eff=2189) | bc++=156404 bc--=2348 inv=1951
[DSB @ 1500000 calls] bc=12 isBypassOn=false| real=311 virt=187573 notrack=1312115 | touchRes=167686(eff=159,ineff=167527) resetRes=2394(ineff=51,eff=2343) | bc++=167578 bc--=2502 inv=2121
[DSB @ 1600000 calls] bc=12 isBypassOn=false| real=314 virt=199948 notrack=1399737 | touchRes=178794(eff=159,ineff=178635) resetRes=2545(ineff=51,eff=2494) | bc++=178686 bc--=2653 inv=2269
[DSB @ 1700000 calls] bc=12 isBypassOn=false| real=315 virt=212622 notrack=1487062 | touchRes=190322(eff=159,ineff=190163) resetRes=2716(ineff=51,eff=2665) | bc++=190214 bc--=2824 inv=2417
[DSB @ 1800000 calls] bc=12 isBypassOn=true| real=315 virt=224925 notrack=1574759 | touchRes=201220(eff=159,ineff=201061) resetRes=2869(ineff=51,eff=2818) | bc++=201112 bc--=2977 inv=2581
Exiting @ tick 24409770343000 because a thread reached the max instruction count
