warn: The `get_runtime_isa` function is deprecated. Please migrate away from using this function.
warn: The se.py script is deprecated. It will be removed in future releases of  gem5.
warn: The `get_runtime_isa` function is deprecated. Please migrate away from using this function.
Global frequency set at 1000000000000 ticks per second
src/base/statistics.hh:279: warn: One of the stats is a legacy stat. Legacy stat is a stat that does not belong to any statistics::Group. Legacy stat is deprecated.
src/base/remote_gdb.cc:418: warn: Sockets disabled, not accepting gdb connections
src/sim/process.cc:396: warn: Checkpoints for pipes, device drivers and sockets do not work.
gem5 Simulator System.  https://www.gem5.org
gem5 is copyrighted software; use the --copyright option for details.

gem5 version 23.0.0.1
gem5 compiled Apr  6 2026 01:50:35
gem5 started Apr  6 2026 12:06:43
gem5 executing on b49ce2a326be, pid 202347
command line: /opt/gem5/build/X86/gem5.opt --outdir=/workspace/results_l3/2MB/policy0Config3/xalancbmk /workspace/configs/run_spec_l3.py --rp-type=DSBRP --l3-size=2MB --l3-assoc=16 --cpu-type=DerivO3CPU --cmd=./xalancbmk_s_base.gem5-x86 '--options=-v t5.xml xalanc.xsl' --mem-size=8GB --maxinst=250000000 --caches --l2cache --l1d_size=32kB --l1i_size=32kB --l1d_assoc=8 --l1i_assoc=8 --l2_size=256kB --l2_assoc=8 --checkpoint-restore=1 --checkpoint-dir=/workspace/checkpoints/xalancbmk/m5out --restore-with-cpu=AtomicSimpleCPU --standard-switch=1 --warmup-insts=50000000 --dsb-enable-bypass=true --dsb-enable-aging=false --dsb-bypass-counter=3 --dsb-virtual-bypass-counter=3 --dsb-random-promotion=0 --dsb-minimum-bypass-counter=12

info: Standard input is not a terminal, disabling listeners.
Replacement policy: DSBRP
L1I size: 32kB, assoc: 8
L1D size: 32kB, assoc: 8
L2 size: 256kB, assoc: 8
L3 size: 2MB, L3 assoc: 16
Switch at instruction count:1
src/sim/simulate.cc:194: info: Entering event queue @ 27962974663500.  Starting simulation...
src/sim/simulate.cc:194: info: Entering event queue @ 27962974665000.  Starting simulation...
src/sim/power_state.cc:105: warn: PowerState: Already in the requested power state, request ignored
Switched CPUS @ tick 27962974665000
switching cpus
Switch at instruction count:50000000
src/sim/simulate.cc:194: info: Entering event queue @ 27962974666000.  Starting simulation...
[DSB @ 100000 calls] bc=12 isBypassOn=false| real=356 virt=12465 notrack=87178 | touchRes=5463(eff=211,ineff=5252) resetRes=84(ineff=0,eff=84) | bc++=5252 bc--=295 inv=5393
[DSB @ 200000 calls] bc=0 isBypassOn=true| real=41273 virt=19946 notrack=138780 | touchRes=19101(eff=11113,ineff=7988) resetRes=1078(ineff=423,eff=655) | bc++=8411 bc--=11768 inv=10728
src/sim/simulate.cc:194: info: Entering event queue @ 28102531849500.  Starting simulation...
Switching CPUS @ tick 28102531849500
Simulation ends instruction count:250000000
switching cpus
**** REAL SIMULATION ****
src/sim/simulate.cc:194: info: Entering event queue @ 28102532009500.  Starting simulation...
[DSB @ 300000 calls] bc=6 isBypassOn=true| real=110005 virt=24015 notrack=165979 | touchRes=39933(eff=30550,ineff=9383) resetRes=2473(ineff=1459,eff=1014) | bc++=10842 bc--=31564 inv=15232
[DSB @ 400000 calls] bc=0 isBypassOn=true| real=128882 virt=34110 notrack=237007 | touchRes=46644(eff=34848,ineff=11796) resetRes=3146(ineff=1975,eff=1171) | bc++=13771 bc--=36019 inv=23743
[DSB @ 500000 calls] bc=0 isBypassOn=true| real=184013 virt=39737 notrack=276249 | touchRes=64480(eff=50897,ineff=13583) resetRes=4237(ineff=2801,eff=1436) | bc++=16384 bc--=52333 inv=30427
[DSB @ 600000 calls] bc=0 isBypassOn=true| real=267693 virt=41694 notrack=290612 | touchRes=97600(eff=83197,ineff=14403) resetRes=6030(ineff=4232,eff=1798) | bc++=18635 bc--=84995 inv=32599
[DSB @ 700000 calls] bc=12 isBypassOn=false| real=276467 virt=53073 notrack=370459 | touchRes=101224(eff=83959,ineff=17265) resetRes=6312(ineff=4281,eff=2031) | bc++=21546 bc--=85990 inv=41068
[DSB @ 800000 calls] bc=10 isBypassOn=true| real=280133 virt=65079 notrack=454787 | touchRes=106061(eff=85381,ineff=20680) resetRes=6722(ineff=4334,eff=2388) | bc++=25014 bc--=87769 inv=48370
[DSB @ 900000 calls] bc=12 isBypassOn=false| real=291392 virt=76177 notrack=532430 | touchRes=112126(eff=88571,ineff=23555) resetRes=7275(ineff=4584,eff=2691) | bc++=28139 bc--=91262 inv=57155
[DSB @ 1000000 calls] bc=0 isBypassOn=true| real=335318 virt=83148 notrack=581533 | touchRes=125394(eff=99817,ineff=25577) resetRes=7634(ineff=4774,eff=2860) | bc++=30351 bc--=102677 inv=63990
[DSB @ 1100000 calls] bc=12 isBypassOn=false| real=376426 virt=90521 notrack=633052 | touchRes=136525(eff=109003,ineff=27522) resetRes=8393(ineff=5269,eff=3124) | bc++=32791 bc--=112127 inv=72644
[DSB @ 1200000 calls] bc=12 isBypassOn=false| real=393020 virt=100779 notrack=706200 | touchRes=143071(eff=112676,ineff=30395) resetRes=8802(ineff=5534,eff=3268) | bc++=35929 bc--=115944 inv=80747
[DSB @ 1300000 calls] bc=12 isBypassOn=false| real=417743 virt=110257 notrack=771999 | touchRes=153120(eff=120291,ineff=32829) resetRes=9340(ineff=5833,eff=3507) | bc++=38662 bc--=123798 inv=88180
[DSB @ 1400000 calls] bc=12 isBypassOn=false| real=446903 virt=119031 notrack=834065 | touchRes=161709(eff=126551,ineff=35158) resetRes=10288(ineff=6539,eff=3749) | bc++=41697 bc--=130300 inv=96296
[DSB @ 1500000 calls] bc=12 isBypassOn=false| real=482406 virt=127148 notrack=890445 | touchRes=173148(eff=135573,ineff=37575) resetRes=11070(ineff=7073,eff=3997) | bc++=44648 bc--=139570 inv=104107
[DSB @ 1600000 calls] bc=12 isBypassOn=true| real=510483 virt=136129 notrack=953387 | touchRes=184309(eff=144265,ineff=40044) resetRes=11678(ineff=7396,eff=4282) | bc++=47440 bc--=148547 inv=112644
[DSB @ 1700000 calls] bc=12 isBypassOn=false| real=525038 virt=146994 notrack=1027967 | touchRes=188645(eff=146002,ineff=42643) resetRes=12104(ineff=7580,eff=4524) | bc++=50223 bc--=150526 inv=121555
[DSB @ 1800000 calls] bc=0 isBypassOn=true| real=541669 virt=157409 notrack=1100921 | touchRes=195153(eff=149616,ineff=45537) resetRes=12784(ineff=7812,eff=4972) | bc++=53349 bc--=154588 inv=129493
Exiting @ tick 28387256723500 because a thread reached the max instruction count
