warn: The `get_runtime_isa` function is deprecated. Please migrate away from using this function.
warn: The se.py script is deprecated. It will be removed in future releases of  gem5.
warn: The `get_runtime_isa` function is deprecated. Please migrate away from using this function.
Global frequency set at 1000000000000 ticks per second
src/mem/dram_interface.cc:690: warn: DRAM device capacity (8192 Mbytes) does not match the address range assigned (16384 Mbytes)
src/base/statistics.hh:279: warn: One of the stats is a legacy stat. Legacy stat is a stat that does not belong to any statistics::Group. Legacy stat is deprecated.
src/base/remote_gdb.cc:418: warn: Sockets disabled, not accepting gdb connections
src/sim/process.cc:396: warn: Checkpoints for pipes, device drivers and sockets do not work.
gem5 Simulator System.  https://www.gem5.org
gem5 is copyrighted software; use the --copyright option for details.

gem5 version 23.0.0.1
gem5 compiled Apr  6 2026 01:50:35
gem5 started Apr  6 2026 13:56:41
gem5 executing on b49ce2a326be, pid 222195
command line: /opt/gem5/build/X86/gem5.opt --outdir=/workspace/results_l3/2MB/policy1Config1/bwaves /workspace/configs/run_spec_l3.py --rp-type=DSBRP --l3-size=2MB --l3-assoc=16 --cpu-type=DerivO3CPU --cmd=./speed_bwaves_base.gem5-x86 --options=bwaves_1 --mem-size=16GB --maxinst=250000000 --caches --l2cache --l1d_size=32kB --l1i_size=32kB --l1d_assoc=8 --l1i_assoc=8 --l2_size=256kB --l2_assoc=8 --checkpoint-restore=1 --checkpoint-dir=/workspace/checkpoints/bwaves/m5out --restore-with-cpu=AtomicSimpleCPU --standard-switch=1 --warmup-insts=50000000 --input=bwaves_1.in --dsb-enable-bypass=false --dsb-enable-aging=true --dsb-bypass-counter=6 --dsb-virtual-bypass-counter=4 --dsb-random-promotion=0 --dsb-minimum-bypass-counter=8

info: Standard input is not a terminal, disabling listeners.
Replacement policy: DSBRP
L1I size: 32kB, assoc: 8
L1D size: 32kB, assoc: 8
L2 size: 256kB, assoc: 8
L3 size: 2MB, L3 assoc: 16
Switch at instruction count:1
src/sim/simulate.cc:194: info: Entering event queue @ 26022662981500.  Starting simulation...
src/sim/simulate.cc:194: info: Entering event queue @ 26022662983500.  Starting simulation...
src/sim/power_state.cc:105: warn: PowerState: Already in the requested power state, request ignored
Switched CPUS @ tick 26022662983500
switching cpus
Switch at instruction count:50000000
src/sim/simulate.cc:194: info: Entering event queue @ 26022662984000.  Starting simulation...
[DSB @ 100000 calls] bc=8 isBypassOn=false| real=0 virt=6236 notrack=93763 | touchRes=5341(eff=0,ineff=5341) resetRes=0(ineff=0,eff=0) | bc++=5341 bc--=0 inv=0
[DSB @ 200000 calls] bc=8 isBypassOn=false| real=0 virt=12537 notrack=187462 | touchRes=11025(eff=0,ineff=11025) resetRes=0(ineff=0,eff=0) | bc++=11025 bc--=0 inv=0
[DSB @ 300000 calls] bc=8 isBypassOn=false| real=0 virt=18724 notrack=281275 | touchRes=16600(eff=0,ineff=16600) resetRes=0(ineff=0,eff=0) | bc++=16600 bc--=0 inv=0
[DSB @ 400000 calls] bc=8 isBypassOn=false| real=0 virt=24930 notrack=375069 | touchRes=22186(eff=0,ineff=22186) resetRes=0(ineff=0,eff=0) | bc++=22186 bc--=0 inv=0
[DSB @ 500000 calls] bc=8 isBypassOn=false| real=0 virt=31246 notrack=468753 | touchRes=27855(eff=0,ineff=27855) resetRes=0(ineff=0,eff=0) | bc++=27855 bc--=0 inv=0
[DSB @ 600000 calls] bc=8 isBypassOn=false| real=0 virt=37490 notrack=562509 | touchRes=33490(eff=0,ineff=33490) resetRes=0(ineff=0,eff=0) | bc++=33490 bc--=0 inv=0
[DSB @ 700000 calls] bc=8 isBypassOn=false| real=0 virt=43821 notrack=656178 | touchRes=39096(eff=0,ineff=39096) resetRes=0(ineff=0,eff=0) | bc++=39096 bc--=0 inv=0
[DSB @ 800000 calls] bc=8 isBypassOn=false| real=0 virt=50188 notrack=749811 | touchRes=44824(eff=0,ineff=44824) resetRes=0(ineff=0,eff=0) | bc++=44824 bc--=0 inv=0
[DSB @ 900000 calls] bc=8 isBypassOn=false| real=0 virt=56528 notrack=843471 | touchRes=50544(eff=0,ineff=50544) resetRes=0(ineff=0,eff=0) | bc++=50544 bc--=0 inv=0
[DSB @ 1000000 calls] bc=8 isBypassOn=false| real=0 virt=62669 notrack=937330 | touchRes=56049(eff=0,ineff=56049) resetRes=0(ineff=0,eff=0) | bc++=56049 bc--=0 inv=0
[DSB @ 1100000 calls] bc=8 isBypassOn=false| real=0 virt=68811 notrack=1031188 | touchRes=61548(eff=0,ineff=61548) resetRes=0(ineff=0,eff=0) | bc++=61548 bc--=0 inv=0
[DSB @ 1200000 calls] bc=8 isBypassOn=false| real=0 virt=75030 notrack=1124969 | touchRes=67092(eff=0,ineff=67092) resetRes=0(ineff=0,eff=0) | bc++=67092 bc--=0 inv=0
[DSB @ 1300000 calls] bc=8 isBypassOn=false| real=0 virt=81240 notrack=1218759 | touchRes=72730(eff=0,ineff=72730) resetRes=0(ineff=0,eff=0) | bc++=72730 bc--=0 inv=0
[DSB @ 1400000 calls] bc=8 isBypassOn=false| real=0 virt=87503 notrack=1312496 | touchRes=78368(eff=0,ineff=78368) resetRes=0(ineff=0,eff=0) | bc++=78368 bc--=0 inv=0
[DSB @ 1500000 calls] bc=8 isBypassOn=false| real=0 virt=93725 notrack=1406274 | touchRes=83921(eff=0,ineff=83921) resetRes=0(ineff=0,eff=0) | bc++=83921 bc--=0 inv=0
[DSB @ 1600000 calls] bc=8 isBypassOn=false| real=0 virt=100073 notrack=1499926 | touchRes=89665(eff=0,ineff=89665) resetRes=0(ineff=0,eff=0) | bc++=89665 bc--=0 inv=0
src/sim/simulate.cc:194: info: Entering event queue @ 26278335725500.  Starting simulation...
Switching CPUS @ tick 26278335725500
Simulation ends instruction count:250000000
switching cpus
**** REAL SIMULATION ****
src/sim/simulate.cc:194: info: Entering event queue @ 26278335727500.  Starting simulation...
[DSB @ 1700000 calls] bc=8 isBypassOn=false| real=0 virt=106182 notrack=1593817 | touchRes=95167(eff=0,ineff=95167) resetRes=0(ineff=0,eff=0) | bc++=95167 bc--=0 inv=1
[DSB @ 1800000 calls] bc=8 isBypassOn=false| real=0 virt=112390 notrack=1687609 | touchRes=100725(eff=0,ineff=100725) resetRes=0(ineff=0,eff=0) | bc++=100725 bc--=0 inv=1
[DSB @ 1900000 calls] bc=8 isBypassOn=false| real=0 virt=118744 notrack=1781255 | touchRes=106387(eff=0,ineff=106387) resetRes=0(ineff=0,eff=0) | bc++=106387 bc--=0 inv=1
[DSB @ 2000000 calls] bc=8 isBypassOn=false| real=0 virt=125155 notrack=1874844 | touchRes=112127(eff=0,ineff=112127) resetRes=0(ineff=0,eff=0) | bc++=112127 bc--=0 inv=1
[DSB @ 2100000 calls] bc=8 isBypassOn=false| real=0 virt=131437 notrack=1968562 | touchRes=117755(eff=0,ineff=117755) resetRes=1(ineff=0,eff=1) | bc++=117755 bc--=1 inv=1
[DSB @ 2200000 calls] bc=8 isBypassOn=false| real=0 virt=137623 notrack=2062376 | touchRes=123270(eff=0,ineff=123270) resetRes=3(ineff=0,eff=3) | bc++=123270 bc--=3 inv=1
[DSB @ 2300000 calls] bc=8 isBypassOn=false| real=0 virt=143814 notrack=2156185 | touchRes=128662(eff=0,ineff=128662) resetRes=4(ineff=0,eff=4) | bc++=128662 bc--=4 inv=1
[DSB @ 2400000 calls] bc=8 isBypassOn=false| real=0 virt=150005 notrack=2249994 | touchRes=134151(eff=0,ineff=134151) resetRes=4(ineff=0,eff=4) | bc++=134151 bc--=4 inv=1
[DSB @ 2500000 calls] bc=8 isBypassOn=false| real=0 virt=156326 notrack=2343673 | touchRes=139689(eff=0,ineff=139689) resetRes=4(ineff=0,eff=4) | bc++=139689 bc--=4 inv=1
[DSB @ 2600000 calls] bc=8 isBypassOn=false| real=0 virt=162627 notrack=2437372 | touchRes=145230(eff=0,ineff=145230) resetRes=5(ineff=0,eff=5) | bc++=145230 bc--=5 inv=1
[DSB @ 2700000 calls] bc=8 isBypassOn=false| real=0 virt=168859 notrack=2531140 | touchRes=150730(eff=0,ineff=150730) resetRes=6(ineff=0,eff=6) | bc++=150730 bc--=6 inv=1
[DSB @ 2800000 calls] bc=8 isBypassOn=false| real=0 virt=175109 notrack=2624890 | touchRes=156258(eff=0,ineff=156258) resetRes=6(ineff=0,eff=6) | bc++=156258 bc--=6 inv=1
[DSB @ 2900000 calls] bc=8 isBypassOn=false| real=0 virt=181299 notrack=2718700 | touchRes=161651(eff=0,ineff=161651) resetRes=8(ineff=0,eff=8) | bc++=161651 bc--=8 inv=1
[DSB @ 3000000 calls] bc=8 isBypassOn=false| real=0 virt=187590 notrack=2812409 | touchRes=167170(eff=0,ineff=167170) resetRes=8(ineff=0,eff=8) | bc++=167170 bc--=8 inv=1
[DSB @ 3100000 calls] bc=8 isBypassOn=false| real=0 virt=193764 notrack=2906235 | touchRes=172618(eff=0,ineff=172618) resetRes=9(ineff=0,eff=9) | bc++=172618 bc--=9 inv=1
[DSB @ 3200000 calls] bc=8 isBypassOn=false| real=0 virt=199993 notrack=3000006 | touchRes=178088(eff=0,ineff=178088) resetRes=9(ineff=0,eff=9) | bc++=178088 bc--=9 inv=1
[DSB @ 3300000 calls] bc=8 isBypassOn=false| real=0 virt=206255 notrack=3093744 | touchRes=183562(eff=0,ineff=183562) resetRes=9(ineff=0,eff=9) | bc++=183562 bc--=9 inv=1
[DSB @ 3400000 calls] bc=8 isBypassOn=false| real=0 virt=212533 notrack=3187466 | touchRes=189039(eff=0,ineff=189039) resetRes=10(ineff=0,eff=10) | bc++=189039 bc--=10 inv=1
[DSB @ 3500000 calls] bc=8 isBypassOn=false| real=0 virt=218703 notrack=3281296 | touchRes=194439(eff=0,ineff=194439) resetRes=11(ineff=0,eff=11) | bc++=194439 bc--=11 inv=1
[DSB @ 3600000 calls] bc=8 isBypassOn=false| real=0 virt=224950 notrack=3375049 | touchRes=199906(eff=0,ineff=199906) resetRes=11(ineff=0,eff=11) | bc++=199906 bc--=11 inv=1
[DSB @ 3700000 calls] bc=8 isBypassOn=false| real=0 virt=231134 notrack=3468865 | touchRes=205372(eff=0,ineff=205372) resetRes=11(ineff=0,eff=11) | bc++=205372 bc--=11 inv=1
[DSB @ 3800000 calls] bc=8 isBypassOn=false| real=0 virt=237413 notrack=3562586 | touchRes=210916(eff=0,ineff=210916) resetRes=12(ineff=0,eff=12) | bc++=210916 bc--=12 inv=1
[DSB @ 3900000 calls] bc=8 isBypassOn=false| real=0 virt=243677 notrack=3656322 | touchRes=216409(eff=0,ineff=216409) resetRes=12(ineff=0,eff=12) | bc++=216409 bc--=12 inv=1
[DSB @ 4000000 calls] bc=8 isBypassOn=false| real=0 virt=249869 notrack=3750130 | touchRes=221850(eff=0,ineff=221850) resetRes=13(ineff=0,eff=13) | bc++=221850 bc--=13 inv=1
[DSB @ 4100000 calls] bc=8 isBypassOn=false| real=0 virt=256152 notrack=3843847 | touchRes=227393(eff=0,ineff=227393) resetRes=13(ineff=0,eff=13) | bc++=227393 bc--=13 inv=1
[DSB @ 4200000 calls] bc=8 isBypassOn=false| real=0 virt=262452 notrack=3937547 | touchRes=232915(eff=0,ineff=232915) resetRes=15(ineff=0,eff=15) | bc++=232915 bc--=15 inv=1
[DSB @ 4300000 calls] bc=8 isBypassOn=false| real=0 virt=268639 notrack=4031360 | touchRes=238350(eff=0,ineff=238350) resetRes=15(ineff=0,eff=15) | bc++=238350 bc--=15 inv=1
[DSB @ 4400000 calls] bc=8 isBypassOn=false| real=0 virt=274943 notrack=4125056 | touchRes=243913(eff=0,ineff=243913) resetRes=16(ineff=0,eff=16) | bc++=243913 bc--=16 inv=1
[DSB @ 4500000 calls] bc=8 isBypassOn=false| real=0 virt=281265 notrack=4218734 | touchRes=249470(eff=0,ineff=249470) resetRes=16(ineff=0,eff=16) | bc++=249470 bc--=16 inv=1
[DSB @ 4600000 calls] bc=8 isBypassOn=false| real=0 virt=287356 notrack=4312643 | touchRes=254824(eff=0,ineff=254824) resetRes=16(ineff=0,eff=16) | bc++=254824 bc--=16 inv=1
[DSB @ 4700000 calls] bc=8 isBypassOn=false| real=0 virt=293575 notrack=4406424 | touchRes=260258(eff=0,ineff=260258) resetRes=16(ineff=0,eff=16) | bc++=260258 bc--=16 inv=1
[DSB @ 4800000 calls] bc=8 isBypassOn=false| real=0 virt=299724 notrack=4500275 | touchRes=265695(eff=0,ineff=265695) resetRes=16(ineff=0,eff=16) | bc++=265695 bc--=16 inv=1
[DSB @ 4900000 calls] bc=8 isBypassOn=false| real=0 virt=305789 notrack=4594210 | touchRes=271049(eff=0,ineff=271049) resetRes=16(ineff=0,eff=16) | bc++=271049 bc--=16 inv=1
[DSB @ 5000000 calls] bc=8 isBypassOn=false| real=0 virt=311957 notrack=4688042 | touchRes=276444(eff=0,ineff=276444) resetRes=17(ineff=0,eff=17) | bc++=276444 bc--=17 inv=1
[DSB @ 5100000 calls] bc=8 isBypassOn=false| real=0 virt=318284 notrack=4781715 | touchRes=281969(eff=0,ineff=281969) resetRes=18(ineff=0,eff=18) | bc++=281969 bc--=18 inv=1
[DSB @ 5200000 calls] bc=8 isBypassOn=false| real=0 virt=324506 notrack=4875493 | touchRes=287504(eff=0,ineff=287504) resetRes=19(ineff=0,eff=19) | bc++=287504 bc--=19 inv=1
[DSB @ 5300000 calls] bc=8 isBypassOn=false| real=0 virt=330784 notrack=4969215 | touchRes=292996(eff=0,ineff=292996) resetRes=19(ineff=0,eff=19) | bc++=292996 bc--=19 inv=1
[DSB @ 5400000 calls] bc=8 isBypassOn=false| real=0 virt=337027 notrack=5062972 | touchRes=298565(eff=0,ineff=298565) resetRes=19(ineff=0,eff=19) | bc++=298565 bc--=19 inv=1
[DSB @ 5500000 calls] bc=8 isBypassOn=false| real=0 virt=343233 notrack=5156766 | touchRes=304030(eff=0,ineff=304030) resetRes=21(ineff=0,eff=21) | bc++=304030 bc--=21 inv=1
[DSB @ 5600000 calls] bc=8 isBypassOn=false| real=0 virt=349285 notrack=5250714 | touchRes=309338(eff=0,ineff=309338) resetRes=21(ineff=0,eff=21) | bc++=309338 bc--=21 inv=1
[DSB @ 5700000 calls] bc=8 isBypassOn=false| real=0 virt=355549 notrack=5344450 | touchRes=314841(eff=0,ineff=314841) resetRes=23(ineff=0,eff=23) | bc++=314841 bc--=23 inv=1
[DSB @ 5800000 calls] bc=8 isBypassOn=false| real=0 virt=361848 notrack=5438151 | touchRes=320346(eff=0,ineff=320346) resetRes=23(ineff=0,eff=23) | bc++=320346 bc--=23 inv=1
[DSB @ 5900000 calls] bc=8 isBypassOn=false| real=0 virt=368217 notrack=5531782 | touchRes=325971(eff=0,ineff=325971) resetRes=24(ineff=0,eff=24) | bc++=325971 bc--=24 inv=1
[DSB @ 6000000 calls] bc=8 isBypassOn=false| real=0 virt=374475 notrack=5625524 | touchRes=331464(eff=0,ineff=331464) resetRes=25(ineff=0,eff=25) | bc++=331464 bc--=25 inv=1
[DSB @ 6100000 calls] bc=8 isBypassOn=false| real=0 virt=380734 notrack=5719265 | touchRes=336939(eff=0,ineff=336939) resetRes=27(ineff=0,eff=27) | bc++=336939 bc--=27 inv=1
[DSB @ 6200000 calls] bc=8 isBypassOn=false| real=0 virt=386914 notrack=5813085 | touchRes=342405(eff=0,ineff=342405) resetRes=27(ineff=0,eff=27) | bc++=342405 bc--=27 inv=1
[DSB @ 6300000 calls] bc=8 isBypassOn=false| real=0 virt=393239 notrack=5906760 | touchRes=347965(eff=0,ineff=347965) resetRes=28(ineff=0,eff=28) | bc++=347965 bc--=28 inv=1
[DSB @ 6400000 calls] bc=8 isBypassOn=false| real=0 virt=399491 notrack=6000508 | touchRes=353495(eff=0,ineff=353495) resetRes=29(ineff=0,eff=29) | bc++=353495 bc--=29 inv=1
[DSB @ 6500000 calls] bc=8 isBypassOn=false| real=0 virt=405711 notrack=6094288 | touchRes=358926(eff=0,ineff=358926) resetRes=31(ineff=0,eff=31) | bc++=358926 bc--=31 inv=1
[DSB @ 6600000 calls] bc=8 isBypassOn=false| real=0 virt=412041 notrack=6187958 | touchRes=364428(eff=0,ineff=364428) resetRes=31(ineff=0,eff=31) | bc++=364428 bc--=31 inv=1
[DSB @ 6700000 calls] bc=8 isBypassOn=false| real=0 virt=418294 notrack=6281705 | touchRes=369971(eff=0,ineff=369971) resetRes=31(ineff=0,eff=31) | bc++=369971 bc--=31 inv=1
[DSB @ 6800000 calls] bc=8 isBypassOn=false| real=0 virt=424572 notrack=6375427 | touchRes=375533(eff=0,ineff=375533) resetRes=31(ineff=0,eff=31) | bc++=375533 bc--=31 inv=1
[DSB @ 6900000 calls] bc=8 isBypassOn=false| real=0 virt=430804 notrack=6469195 | touchRes=380978(eff=0,ineff=380978) resetRes=32(ineff=0,eff=32) | bc++=380978 bc--=32 inv=1
[DSB @ 7000000 calls] bc=8 isBypassOn=false| real=0 virt=437119 notrack=6562880 | touchRes=386519(eff=0,ineff=386519) resetRes=33(ineff=0,eff=33) | bc++=386519 bc--=33 inv=1
[DSB @ 7100000 calls] bc=8 isBypassOn=false| real=0 virt=443472 notrack=6656527 | touchRes=392092(eff=0,ineff=392092) resetRes=34(ineff=0,eff=34) | bc++=392092 bc--=34 inv=1
[DSB @ 7200000 calls] bc=8 isBypassOn=false| real=0 virt=449689 notrack=6750310 | touchRes=397573(eff=0,ineff=397573) resetRes=35(ineff=0,eff=35) | bc++=397573 bc--=35 inv=1
[DSB @ 7300000 calls] bc=8 isBypassOn=false| real=0 virt=455978 notrack=6844021 | touchRes=403106(eff=0,ineff=403106) resetRes=37(ineff=0,eff=37) | bc++=403106 bc--=37 inv=1
[DSB @ 7400000 calls] bc=8 isBypassOn=false| real=0 virt=462162 notrack=6937837 | touchRes=408515(eff=0,ineff=408515) resetRes=37(ineff=0,eff=37) | bc++=408515 bc--=37 inv=1
[DSB @ 7500000 calls] bc=8 isBypassOn=false| real=0 virt=468321 notrack=7031678 | touchRes=413955(eff=0,ineff=413955) resetRes=38(ineff=0,eff=38) | bc++=413955 bc--=38 inv=1
[DSB @ 7600000 calls] bc=8 isBypassOn=false| real=0 virt=474592 notrack=7125407 | touchRes=419509(eff=0,ineff=419509) resetRes=39(ineff=0,eff=39) | bc++=419509 bc--=39 inv=1
[DSB @ 7700000 calls] bc=8 isBypassOn=false| real=0 virt=480837 notrack=7219162 | touchRes=424978(eff=0,ineff=424978) resetRes=39(ineff=0,eff=39) | bc++=424978 bc--=39 inv=1
[DSB @ 7800000 calls] bc=8 isBypassOn=false| real=0 virt=487079 notrack=7312920 | touchRes=430432(eff=0,ineff=430432) resetRes=40(ineff=0,eff=40) | bc++=430432 bc--=40 inv=1
[DSB @ 7900000 calls] bc=8 isBypassOn=false| real=0 virt=493140 notrack=7406859 | touchRes=435804(eff=0,ineff=435804) resetRes=40(ineff=0,eff=40) | bc++=435804 bc--=40 inv=1
[DSB @ 8000000 calls] bc=8 isBypassOn=false| real=0 virt=499420 notrack=7500579 | touchRes=441326(eff=0,ineff=441326) resetRes=41(ineff=0,eff=41) | bc++=441326 bc--=41 inv=1
[DSB @ 8100000 calls] bc=8 isBypassOn=false| real=0 virt=505583 notrack=7594416 | touchRes=446743(eff=0,ineff=446743) resetRes=42(ineff=0,eff=42) | bc++=446743 bc--=42 inv=1
[DSB @ 8200000 calls] bc=8 isBypassOn=false| real=0 virt=511768 notrack=7688231 | touchRes=452174(eff=0,ineff=452174) resetRes=43(ineff=0,eff=43) | bc++=452174 bc--=43 inv=1
[DSB @ 8300000 calls] bc=8 isBypassOn=false| real=0 virt=518009 notrack=7781990 | touchRes=457643(eff=0,ineff=457643) resetRes=44(ineff=0,eff=44) | bc++=457643 bc--=44 inv=1
[DSB @ 8400000 calls] bc=8 isBypassOn=false| real=0 virt=524275 notrack=7875724 | touchRes=463134(eff=0,ineff=463134) resetRes=44(ineff=0,eff=44) | bc++=463134 bc--=44 inv=1
[DSB @ 8500000 calls] bc=8 isBypassOn=false| real=0 virt=530380 notrack=7969619 | touchRes=468529(eff=0,ineff=468529) resetRes=44(ineff=0,eff=44) | bc++=468529 bc--=44 inv=1
[DSB @ 8600000 calls] bc=8 isBypassOn=false| real=0 virt=536672 notrack=8063327 | touchRes=474026(eff=0,ineff=474026) resetRes=44(ineff=0,eff=44) | bc++=474026 bc--=44 inv=1
[DSB @ 8700000 calls] bc=8 isBypassOn=false| real=0 virt=542922 notrack=8157077 | touchRes=479535(eff=0,ineff=479535) resetRes=44(ineff=0,eff=44) | bc++=479535 bc--=44 inv=1
[DSB @ 8800000 calls] bc=8 isBypassOn=false| real=0 virt=549193 notrack=8250806 | touchRes=485092(eff=0,ineff=485092) resetRes=45(ineff=0,eff=45) | bc++=485092 bc--=45 inv=2
[DSB @ 8900000 calls] bc=8 isBypassOn=false| real=0 virt=555502 notrack=8344497 | touchRes=490705(eff=0,ineff=490705) resetRes=45(ineff=0,eff=45) | bc++=490705 bc--=45 inv=2
[DSB @ 9000000 calls] bc=8 isBypassOn=false| real=0 virt=561627 notrack=8438372 | touchRes=496241(eff=0,ineff=496241) resetRes=45(ineff=0,eff=45) | bc++=496241 bc--=45 inv=2
[DSB @ 9100000 calls] bc=8 isBypassOn=false| real=0 virt=567867 notrack=8532132 | touchRes=501765(eff=0,ineff=501765) resetRes=45(ineff=0,eff=45) | bc++=501765 bc--=45 inv=2
[DSB @ 9200000 calls] bc=8 isBypassOn=false| real=0 virt=574079 notrack=8625920 | touchRes=507286(eff=0,ineff=507286) resetRes=45(ineff=0,eff=45) | bc++=507286 bc--=45 inv=2
[DSB @ 9300000 calls] bc=8 isBypassOn=false| real=0 virt=580238 notrack=8719761 | touchRes=512806(eff=0,ineff=512806) resetRes=45(ineff=0,eff=45) | bc++=512806 bc--=45 inv=2
[DSB @ 9400000 calls] bc=8 isBypassOn=false| real=0 virt=586512 notrack=8813487 | touchRes=518407(eff=0,ineff=518407) resetRes=45(ineff=0,eff=45) | bc++=518407 bc--=45 inv=2
[DSB @ 9500000 calls] bc=8 isBypassOn=false| real=0 virt=592834 notrack=8907165 | touchRes=524028(eff=0,ineff=524028) resetRes=45(ineff=0,eff=45) | bc++=524028 bc--=45 inv=2
[DSB @ 9600000 calls] bc=8 isBypassOn=false| real=0 virt=599009 notrack=9000990 | touchRes=529545(eff=0,ineff=529545) resetRes=45(ineff=0,eff=45) | bc++=529545 bc--=45 inv=2
[DSB @ 9700000 calls] bc=8 isBypassOn=false| real=0 virt=605320 notrack=9094679 | touchRes=535186(eff=0,ineff=535186) resetRes=45(ineff=0,eff=45) | bc++=535186 bc--=45 inv=2
[DSB @ 9800000 calls] bc=8 isBypassOn=false| real=0 virt=611551 notrack=9188448 | touchRes=540774(eff=0,ineff=540774) resetRes=45(ineff=0,eff=45) | bc++=540774 bc--=45 inv=2
Exiting @ tick 26658756317000 because a thread reached the max instruction count
