warn: The `get_runtime_isa` function is deprecated. Please migrate away from using this function.
warn: The se.py script is deprecated. It will be removed in future releases of  gem5.
warn: The `get_runtime_isa` function is deprecated. Please migrate away from using this function.
Global frequency set at 1000000000000 ticks per second
src/base/statistics.hh:279: warn: One of the stats is a legacy stat. Legacy stat is a stat that does not belong to any statistics::Group. Legacy stat is deprecated.
src/base/remote_gdb.cc:418: warn: Sockets disabled, not accepting gdb connections
src/sim/process.cc:396: warn: Checkpoints for pipes, device drivers and sockets do not work.
gem5 Simulator System.  https://www.gem5.org
gem5 is copyrighted software; use the --copyright option for details.

gem5 version 23.0.0.1
gem5 compiled Apr  6 2026 01:50:35
gem5 started Apr  6 2026 12:43:58
gem5 executing on b49ce2a326be, pid 208574
command line: /opt/gem5/build/X86/gem5.opt --outdir=/workspace/results_l3/2MB/policy0Config3/imagick /workspace/configs/run_spec_l3.py --rp-type=DSBRP --l3-size=2MB --l3-assoc=16 --cpu-type=DerivO3CPU --cmd=./imagick_s_base.gem5-x86 '--options=-limit disk 0 refspeed_input.tga -resize 817% -rotate -2.76 -shave 540x375 -alpha remove -auto-level -contrast-stretch 1x1% -colorspace Lab -channel R -equalize +channel -colorspace sRGB -define histogram:unique-colors=false -adaptive-blur 0x5 -despeckle -auto-gamma -adaptive-sharpen 55 -enhance -brightness-contrast 10x10 -resize 30% refspeed_output.tga' --mem-size=8GB --maxinst=250000000 --caches --l2cache --l1d_size=32kB --l1i_size=32kB --l1d_assoc=8 --l1i_assoc=8 --l2_size=256kB --l2_assoc=8 --checkpoint-restore=1 --checkpoint-dir=/workspace/checkpoints/imagick/m5out --restore-with-cpu=AtomicSimpleCPU --standard-switch=1 --warmup-insts=50000000 --dsb-enable-bypass=true --dsb-enable-aging=false --dsb-bypass-counter=3 --dsb-virtual-bypass-counter=3 --dsb-random-promotion=0 --dsb-minimum-bypass-counter=12

info: Standard input is not a terminal, disabling listeners.
Replacement policy: DSBRP
L1I size: 32kB, assoc: 8
L1D size: 32kB, assoc: 8
L2 size: 256kB, assoc: 8
L3 size: 2MB, L3 assoc: 16
Switch at instruction count:1
src/sim/simulate.cc:194: info: Entering event queue @ 26455902910500.  Starting simulation...
src/sim/power_state.cc:105: warn: PowerState: Already in the requested power state, request ignored
Switched CPUS @ tick 26455902912000
switching cpus
Switch at instruction count:50000000
src/sim/simulate.cc:194: info: Entering event queue @ 26455902912000.  Starting simulation...
src/sim/simulate.cc:194: info: Entering event queue @ 26545966619500.  Starting simulation...
Switching CPUS @ tick 26545966619500
Simulation ends instruction count:250000000
switching cpus
**** REAL SIMULATION ****
src/sim/simulate.cc:194: info: Entering event queue @ 26545966907000.  Starting simulation...
[DSB @ 100000 calls] bc=12 isBypassOn=true| real=11138 virt=11130 notrack=77731 | touchRes=7629(eff=2477,ineff=5152) resetRes=1955(ineff=1354,eff=601) | bc++=6506 bc--=3078 inv=6364
[DSB @ 200000 calls] bc=12 isBypassOn=false| real=31148 virt=21218 notrack=147633 | touchRes=15149(eff=7406,ineff=7743) resetRes=7178(ineff=5587,eff=1591) | bc++=13330 bc--=8997 inv=16953
[DSB @ 300000 calls] bc=8 isBypassOn=true| real=43578 virt=32218 notrack=224203 | touchRes=21183(eff=10911,ineff=10272) resetRes=10612(ineff=7903,eff=2709) | bc++=18175 bc--=13620 inv=26093
[DSB @ 400000 calls] bc=3 isBypassOn=true| real=65383 virt=42084 notrack=292532 | touchRes=29668(eff=16860,ineff=12808) resetRes=16570(ineff=12762,eff=3808) | bc++=25570 bc--=20668 inv=35554
[DSB @ 500000 calls] bc=12 isBypassOn=false| real=79478 virt=52767 notrack=367754 | touchRes=36472(eff=20590,ineff=15882) resetRes=21607(ineff=16591,eff=5016) | bc++=32473 bc--=25606 inv=44635
Exiting @ tick 26643646949000 because a thread reached the max instruction count
