warn: The `get_runtime_isa` function is deprecated. Please migrate away from using this function.
warn: The se.py script is deprecated. It will be removed in future releases of  gem5.
warn: The `get_runtime_isa` function is deprecated. Please migrate away from using this function.
Global frequency set at 1000000000000 ticks per second
src/base/statistics.hh:279: warn: One of the stats is a legacy stat. Legacy stat is a stat that does not belong to any statistics::Group. Legacy stat is deprecated.
src/base/remote_gdb.cc:418: warn: Sockets disabled, not accepting gdb connections
src/sim/process.cc:396: warn: Checkpoints for pipes, device drivers and sockets do not work.
gem5 Simulator System.  https://www.gem5.org
gem5 is copyrighted software; use the --copyright option for details.

gem5 version 23.0.0.1
gem5 compiled Apr  6 2026 01:50:35
gem5 started Apr  6 2026 07:42:01
gem5 executing on b49ce2a326be, pid 155509
command line: /opt/gem5/build/X86/gem5.opt --outdir=/workspace/results_l3/1MB/policy1Config2/lbm /workspace/configs/run_spec_l3.py --rp-type=DSBRP --l3-size=1MB --l3-assoc=16 --cpu-type=DerivO3CPU --cmd=./lbm_s_base.gem5-x86 '--options=2000 reference.dat 0 0 200_200_260_ldc.of' --mem-size=8GB --maxinst=250000000 --caches --l2cache --l1d_size=32kB --l1i_size=32kB --l1d_assoc=8 --l1i_assoc=8 --l2_size=256kB --l2_assoc=8 --checkpoint-restore=1 --checkpoint-dir=/workspace/checkpoints/lbm/m5out --restore-with-cpu=AtomicSimpleCPU --standard-switch=1 --warmup-insts=50000000 --dsb-enable-bypass=true --dsb-enable-aging=true --dsb-bypass-counter=6 --dsb-virtual-bypass-counter=3 --dsb-random-promotion=0 --dsb-minimum-bypass-counter=12

info: Standard input is not a terminal, disabling listeners.
Replacement policy: DSBRP
L1I size: 32kB, assoc: 8
L1D size: 32kB, assoc: 8
L2 size: 256kB, assoc: 8
L3 size: 1MB, L3 assoc: 16
Switch at instruction count:1
src/sim/simulate.cc:194: info: Entering event queue @ 25728322212500.  Starting simulation...
src/sim/simulate.cc:194: info: Entering event queue @ 25728322214000.  Starting simulation...
src/sim/power_state.cc:105: warn: PowerState: Already in the requested power state, request ignored
Switched CPUS @ tick 25728322214000
switching cpus
Switch at instruction count:50000000
src/sim/simulate.cc:194: info: Entering event queue @ 25728322215000.  Starting simulation...
[DSB @ 100000 calls] bc=12 isBypassOn=false| real=59 virt=12428 notrack=87512 | touchRes=7807(eff=19,ineff=7788) resetRes=19(ineff=19,eff=0) | bc++=7807 bc--=19 inv=0
[DSB @ 200000 calls] bc=12 isBypassOn=false| real=59 virt=24906 notrack=175034 | touchRes=15900(eff=19,ineff=15881) resetRes=19(ineff=19,eff=0) | bc++=15900 bc--=19 inv=0
[DSB @ 300000 calls] bc=12 isBypassOn=false| real=59 virt=37381 notrack=262559 | touchRes=23936(eff=19,ineff=23917) resetRes=19(ineff=19,eff=0) | bc++=23936 bc--=19 inv=0
[DSB @ 400000 calls] bc=12 isBypassOn=false| real=59 virt=49834 notrack=350106 | touchRes=32006(eff=19,ineff=31987) resetRes=19(ineff=19,eff=0) | bc++=32006 bc--=19 inv=0
[DSB @ 500000 calls] bc=12 isBypassOn=false| real=59 virt=62316 notrack=437624 | touchRes=40128(eff=19,ineff=40109) resetRes=19(ineff=19,eff=0) | bc++=40128 bc--=19 inv=0
[DSB @ 600000 calls] bc=12 isBypassOn=false| real=59 virt=74844 notrack=525096 | touchRes=48300(eff=19,ineff=48281) resetRes=19(ineff=19,eff=0) | bc++=48300 bc--=19 inv=0
[DSB @ 700000 calls] bc=12 isBypassOn=false| real=59 virt=87483 notrack=612457 | touchRes=56426(eff=19,ineff=56407) resetRes=19(ineff=19,eff=0) | bc++=56426 bc--=19 inv=0
[DSB @ 800000 calls] bc=12 isBypassOn=false| real=59 virt=100147 notrack=699793 | touchRes=64662(eff=19,ineff=64643) resetRes=19(ineff=19,eff=0) | bc++=64662 bc--=19 inv=1
[DSB @ 900000 calls] bc=12 isBypassOn=false| real=59 virt=112635 notrack=787305 | touchRes=72786(eff=19,ineff=72767) resetRes=19(ineff=19,eff=0) | bc++=72786 bc--=19 inv=1
[DSB @ 1000000 calls] bc=12 isBypassOn=false| real=59 virt=125065 notrack=874875 | touchRes=80787(eff=19,ineff=80768) resetRes=19(ineff=19,eff=0) | bc++=80787 bc--=19 inv=1
src/sim/simulate.cc:194: info: Entering event queue @ 25951433196500.  Starting simulation...
Switching CPUS @ tick 25951433196500
Simulation ends instruction count:250000000
switching cpus
**** REAL SIMULATION ****
src/sim/simulate.cc:194: info: Entering event queue @ 25951433351500.  Starting simulation...
[DSB @ 1100000 calls] bc=12 isBypassOn=false| real=59 virt=137735 notrack=962205 | touchRes=88945(eff=19,ineff=88926) resetRes=19(ineff=19,eff=0) | bc++=88945 bc--=19 inv=1
[DSB @ 1200000 calls] bc=12 isBypassOn=false| real=59 virt=150229 notrack=1049711 | touchRes=96997(eff=19,ineff=96978) resetRes=19(ineff=19,eff=0) | bc++=96997 bc--=19 inv=1
[DSB @ 1300000 calls] bc=12 isBypassOn=false| real=59 virt=162711 notrack=1137229 | touchRes=105069(eff=19,ineff=105050) resetRes=19(ineff=19,eff=0) | bc++=105069 bc--=19 inv=1
[DSB @ 1400000 calls] bc=12 isBypassOn=false| real=59 virt=175058 notrack=1224882 | touchRes=113198(eff=19,ineff=113179) resetRes=19(ineff=19,eff=0) | bc++=113198 bc--=19 inv=1
[DSB @ 1500000 calls] bc=12 isBypassOn=false| real=59 virt=187543 notrack=1312397 | touchRes=121351(eff=19,ineff=121332) resetRes=19(ineff=19,eff=0) | bc++=121351 bc--=19 inv=1
[DSB @ 1600000 calls] bc=12 isBypassOn=false| real=59 virt=200042 notrack=1399898 | touchRes=129462(eff=19,ineff=129443) resetRes=19(ineff=19,eff=0) | bc++=129462 bc--=19 inv=1
[DSB @ 1700000 calls] bc=12 isBypassOn=false| real=59 virt=212632 notrack=1487308 | touchRes=137663(eff=19,ineff=137644) resetRes=19(ineff=19,eff=0) | bc++=137663 bc--=19 inv=1
[DSB @ 1800000 calls] bc=12 isBypassOn=false| real=59 virt=225158 notrack=1574782 | touchRes=145813(eff=19,ineff=145794) resetRes=19(ineff=19,eff=0) | bc++=145813 bc--=19 inv=1
[DSB @ 1900000 calls] bc=12 isBypassOn=false| real=59 virt=237734 notrack=1662206 | touchRes=153987(eff=19,ineff=153968) resetRes=19(ineff=19,eff=0) | bc++=153987 bc--=19 inv=1
[DSB @ 2000000 calls] bc=12 isBypassOn=false| real=59 virt=250387 notrack=1749553 | touchRes=162163(eff=19,ineff=162144) resetRes=19(ineff=19,eff=0) | bc++=162163 bc--=19 inv=1
[DSB @ 2100000 calls] bc=12 isBypassOn=false| real=59 virt=262778 notrack=1837162 | touchRes=170298(eff=19,ineff=170279) resetRes=19(ineff=19,eff=0) | bc++=170298 bc--=19 inv=1
[DSB @ 2200000 calls] bc=12 isBypassOn=false| real=59 virt=275352 notrack=1924588 | touchRes=178392(eff=19,ineff=178373) resetRes=19(ineff=19,eff=0) | bc++=178392 bc--=19 inv=1
[DSB @ 2300000 calls] bc=12 isBypassOn=false| real=59 virt=287979 notrack=2011961 | touchRes=186526(eff=19,ineff=186507) resetRes=19(ineff=19,eff=0) | bc++=186526 bc--=19 inv=1
[DSB @ 2400000 calls] bc=12 isBypassOn=false| real=59 virt=300384 notrack=2099556 | touchRes=194636(eff=19,ineff=194617) resetRes=19(ineff=19,eff=0) | bc++=194636 bc--=19 inv=1
[DSB @ 2500000 calls] bc=12 isBypassOn=false| real=59 virt=312892 notrack=2187048 | touchRes=202843(eff=19,ineff=202824) resetRes=19(ineff=19,eff=0) | bc++=202843 bc--=19 inv=1
[DSB @ 2600000 calls] bc=12 isBypassOn=false| real=59 virt=325543 notrack=2274397 | touchRes=210906(eff=19,ineff=210887) resetRes=19(ineff=19,eff=0) | bc++=210906 bc--=19 inv=1
[DSB @ 2700000 calls] bc=12 isBypassOn=false| real=59 virt=337914 notrack=2362026 | touchRes=218959(eff=19,ineff=218940) resetRes=19(ineff=19,eff=0) | bc++=218959 bc--=19 inv=1
[DSB @ 2800000 calls] bc=12 isBypassOn=false| real=59 virt=350472 notrack=2449468 | touchRes=227108(eff=19,ineff=227089) resetRes=19(ineff=19,eff=0) | bc++=227108 bc--=19 inv=1
[DSB @ 2900000 calls] bc=12 isBypassOn=false| real=59 virt=362996 notrack=2536944 | touchRes=235229(eff=19,ineff=235210) resetRes=19(ineff=19,eff=0) | bc++=235229 bc--=19 inv=1
[DSB @ 3000000 calls] bc=12 isBypassOn=false| real=59 virt=375578 notrack=2624362 | touchRes=243435(eff=19,ineff=243416) resetRes=19(ineff=19,eff=0) | bc++=243435 bc--=19 inv=1
[DSB @ 3100000 calls] bc=12 isBypassOn=false| real=59 virt=388348 notrack=2711592 | touchRes=251654(eff=19,ineff=251635) resetRes=19(ineff=19,eff=0) | bc++=251654 bc--=19 inv=1
[DSB @ 3200000 calls] bc=12 isBypassOn=false| real=59 virt=400854 notrack=2799086 | touchRes=259878(eff=19,ineff=259859) resetRes=19(ineff=19,eff=0) | bc++=259878 bc--=19 inv=2
[DSB @ 3300000 calls] bc=12 isBypassOn=false| real=59 virt=413360 notrack=2886580 | touchRes=267943(eff=19,ineff=267924) resetRes=19(ineff=19,eff=0) | bc++=267943 bc--=19 inv=2
[DSB @ 3400000 calls] bc=12 isBypassOn=false| real=59 virt=425907 notrack=2974033 | touchRes=276056(eff=19,ineff=276037) resetRes=19(ineff=19,eff=0) | bc++=276056 bc--=19 inv=2
[DSB @ 3500000 calls] bc=12 isBypassOn=false| real=59 virt=438346 notrack=3061594 | touchRes=284163(eff=19,ineff=284144) resetRes=19(ineff=19,eff=0) | bc++=284163 bc--=19 inv=2
[DSB @ 3600000 calls] bc=12 isBypassOn=false| real=59 virt=450951 notrack=3148989 | touchRes=292429(eff=19,ineff=292410) resetRes=19(ineff=19,eff=0) | bc++=292429 bc--=19 inv=2
[DSB @ 3700000 calls] bc=12 isBypassOn=false| real=59 virt=463641 notrack=3236299 | touchRes=300626(eff=19,ineff=300607) resetRes=19(ineff=19,eff=0) | bc++=300626 bc--=19 inv=2
[DSB @ 3800000 calls] bc=12 isBypassOn=false| real=59 virt=476293 notrack=3323647 | touchRes=308848(eff=19,ineff=308829) resetRes=19(ineff=19,eff=0) | bc++=308848 bc--=19 inv=2
[DSB @ 3900000 calls] bc=12 isBypassOn=false| real=59 virt=488764 notrack=3411176 | touchRes=316973(eff=19,ineff=316954) resetRes=19(ineff=19,eff=0) | bc++=316973 bc--=19 inv=2
[DSB @ 4000000 calls] bc=12 isBypassOn=false| real=59 virt=501375 notrack=3498565 | touchRes=325222(eff=19,ineff=325203) resetRes=19(ineff=19,eff=0) | bc++=325222 bc--=19 inv=2
[DSB @ 4100000 calls] bc=12 isBypassOn=false| real=59 virt=513887 notrack=3586053 | touchRes=333396(eff=19,ineff=333377) resetRes=19(ineff=19,eff=0) | bc++=333396 bc--=19 inv=2
[DSB @ 4200000 calls] bc=12 isBypassOn=false| real=59 virt=526260 notrack=3673680 | touchRes=341474(eff=19,ineff=341455) resetRes=19(ineff=19,eff=0) | bc++=341474 bc--=19 inv=2
[DSB @ 4300000 calls] bc=12 isBypassOn=false| real=59 virt=538715 notrack=3761225 | touchRes=349601(eff=19,ineff=349582) resetRes=19(ineff=19,eff=0) | bc++=349601 bc--=19 inv=2
[DSB @ 4400000 calls] bc=12 isBypassOn=false| real=59 virt=551184 notrack=3848756 | touchRes=357744(eff=19,ineff=357725) resetRes=19(ineff=19,eff=0) | bc++=357744 bc--=19 inv=2
[DSB @ 4500000 calls] bc=12 isBypassOn=false| real=59 virt=563688 notrack=3936252 | touchRes=365839(eff=19,ineff=365820) resetRes=19(ineff=19,eff=0) | bc++=365839 bc--=19 inv=2
[DSB @ 4600000 calls] bc=12 isBypassOn=false| real=59 virt=576175 notrack=4023765 | touchRes=373936(eff=19,ineff=373917) resetRes=19(ineff=19,eff=0) | bc++=373936 bc--=19 inv=2
[DSB @ 4700000 calls] bc=12 isBypassOn=false| real=59 virt=588703 notrack=4111237 | touchRes=382073(eff=19,ineff=382054) resetRes=19(ineff=19,eff=0) | bc++=382073 bc--=19 inv=2
[DSB @ 4800000 calls] bc=12 isBypassOn=false| real=59 virt=601183 notrack=4198757 | touchRes=390227(eff=19,ineff=390208) resetRes=19(ineff=19,eff=0) | bc++=390227 bc--=19 inv=3
[DSB @ 4900000 calls] bc=12 isBypassOn=false| real=59 virt=613613 notrack=4286327 | touchRes=398410(eff=19,ineff=398391) resetRes=19(ineff=19,eff=0) | bc++=398410 bc--=19 inv=3
[DSB @ 5000000 calls] bc=12 isBypassOn=false| real=59 virt=626119 notrack=4373821 | touchRes=406566(eff=19,ineff=406547) resetRes=19(ineff=19,eff=0) | bc++=406566 bc--=19 inv=3
[DSB @ 5100000 calls] bc=12 isBypassOn=false| real=59 virt=638648 notrack=4461292 | touchRes=414723(eff=19,ineff=414704) resetRes=19(ineff=19,eff=0) | bc++=414723 bc--=19 inv=3
[DSB @ 5200000 calls] bc=12 isBypassOn=false| real=59 virt=651130 notrack=4548810 | touchRes=422844(eff=19,ineff=422825) resetRes=19(ineff=19,eff=0) | bc++=422844 bc--=19 inv=7
[DSB @ 5300000 calls] bc=12 isBypassOn=false| real=59 virt=663717 notrack=4636223 | touchRes=431124(eff=19,ineff=431105) resetRes=19(ineff=19,eff=0) | bc++=431124 bc--=19 inv=7
[DSB @ 5400000 calls] bc=12 isBypassOn=false| real=59 virt=676303 notrack=4723637 | touchRes=439462(eff=19,ineff=439443) resetRes=19(ineff=19,eff=0) | bc++=439462 bc--=19 inv=7
[DSB @ 5500000 calls] bc=12 isBypassOn=false| real=59 virt=688881 notrack=4811059 | touchRes=447674(eff=19,ineff=447655) resetRes=19(ineff=19,eff=0) | bc++=447674 bc--=19 inv=7
[DSB @ 5600000 calls] bc=12 isBypassOn=false| real=59 virt=701304 notrack=4898636 | touchRes=455909(eff=19,ineff=455890) resetRes=19(ineff=19,eff=0) | bc++=455909 bc--=19 inv=7
[DSB @ 5700000 calls] bc=12 isBypassOn=false| real=59 virt=713858 notrack=4986082 | touchRes=464163(eff=19,ineff=464144) resetRes=19(ineff=19,eff=0) | bc++=464163 bc--=19 inv=7
[DSB @ 5800000 calls] bc=12 isBypassOn=false| real=59 virt=726317 notrack=5073623 | touchRes=472325(eff=19,ineff=472306) resetRes=19(ineff=19,eff=0) | bc++=472325 bc--=19 inv=7
[DSB @ 5900000 calls] bc=12 isBypassOn=false| real=59 virt=738885 notrack=5161055 | touchRes=480533(eff=19,ineff=480514) resetRes=19(ineff=19,eff=0) | bc++=480533 bc--=19 inv=7
[DSB @ 6000000 calls] bc=12 isBypassOn=false| real=59 virt=751570 notrack=5248370 | touchRes=488991(eff=19,ineff=488972) resetRes=19(ineff=19,eff=0) | bc++=488991 bc--=19 inv=7
[DSB @ 6100000 calls] bc=12 isBypassOn=false| real=59 virt=764138 notrack=5335802 | touchRes=497320(eff=19,ineff=497301) resetRes=19(ineff=19,eff=0) | bc++=497320 bc--=19 inv=7
[DSB @ 6200000 calls] bc=12 isBypassOn=false| real=59 virt=776506 notrack=5423434 | touchRes=505423(eff=19,ineff=505404) resetRes=19(ineff=19,eff=0) | bc++=505423 bc--=19 inv=7
[DSB @ 6300000 calls] bc=12 isBypassOn=false| real=59 virt=788773 notrack=5511167 | touchRes=513545(eff=19,ineff=513526) resetRes=19(ineff=19,eff=0) | bc++=513545 bc--=19 inv=7
[DSB @ 6400000 calls] bc=12 isBypassOn=false| real=59 virt=801364 notrack=5598576 | touchRes=521764(eff=19,ineff=521745) resetRes=19(ineff=19,eff=0) | bc++=521764 bc--=19 inv=7
[DSB @ 6500000 calls] bc=12 isBypassOn=false| real=59 virt=813780 notrack=5686160 | touchRes=530006(eff=19,ineff=529987) resetRes=19(ineff=19,eff=0) | bc++=530006 bc--=19 inv=7
[DSB @ 6600000 calls] bc=12 isBypassOn=false| real=59 virt=826241 notrack=5773699 | touchRes=538130(eff=19,ineff=538111) resetRes=19(ineff=19,eff=0) | bc++=538130 bc--=19 inv=7
[DSB @ 6700000 calls] bc=12 isBypassOn=false| real=59 virt=838861 notrack=5861079 | touchRes=546340(eff=19,ineff=546321) resetRes=19(ineff=19,eff=0) | bc++=546340 bc--=19 inv=7
[DSB @ 6800000 calls] bc=12 isBypassOn=false| real=59 virt=851316 notrack=5948624 | touchRes=554559(eff=19,ineff=554540) resetRes=19(ineff=19,eff=0) | bc++=554559 bc--=19 inv=7
[DSB @ 6900000 calls] bc=12 isBypassOn=false| real=59 virt=863826 notrack=6036114 | touchRes=562815(eff=19,ineff=562796) resetRes=19(ineff=19,eff=0) | bc++=562815 bc--=19 inv=7
[DSB @ 7000000 calls] bc=12 isBypassOn=false| real=59 virt=876533 notrack=6123407 | touchRes=571139(eff=19,ineff=571120) resetRes=19(ineff=19,eff=0) | bc++=571139 bc--=19 inv=7
[DSB @ 7100000 calls] bc=12 isBypassOn=false| real=59 virt=888847 notrack=6211093 | touchRes=579270(eff=19,ineff=579251) resetRes=19(ineff=19,eff=0) | bc++=579270 bc--=19 inv=7
Exiting @ tick 26575708637500 because a thread reached the max instruction count
