warn: The `get_runtime_isa` function is deprecated. Please migrate away from using this function.
warn: The se.py script is deprecated. It will be removed in future releases of  gem5.
warn: The `get_runtime_isa` function is deprecated. Please migrate away from using this function.
Global frequency set at 1000000000000 ticks per second
src/mem/dram_interface.cc:690: warn: DRAM device capacity (8192 Mbytes) does not match the address range assigned (16384 Mbytes)
src/base/statistics.hh:279: warn: One of the stats is a legacy stat. Legacy stat is a stat that does not belong to any statistics::Group. Legacy stat is deprecated.
src/base/remote_gdb.cc:418: warn: Sockets disabled, not accepting gdb connections
src/sim/process.cc:396: warn: Checkpoints for pipes, device drivers and sockets do not work.
gem5 Simulator System.  https://www.gem5.org
gem5 is copyrighted software; use the --copyright option for details.

gem5 version 23.0.0.1
gem5 compiled Apr  6 2026 01:50:35
gem5 started Apr  6 2026 09:21:41
gem5 executing on b49ce2a326be, pid 171867
command line: /opt/gem5/build/X86/gem5.opt --outdir=/workspace/results_l3/1MB/policy1Config3/roms /workspace/configs/run_spec_l3.py --rp-type=DSBRP --l3-size=1MB --l3-assoc=16 --cpu-type=DerivO3CPU --cmd=./sroms_base.gem5-x86 --options= --mem-size=16GB --maxinst=250000000 --caches --l2cache --l1d_size=32kB --l1i_size=32kB --l1d_assoc=8 --l1i_assoc=8 --l2_size=256kB --l2_assoc=8 --checkpoint-restore=1 --checkpoint-dir=/workspace/checkpoints/roms/m5out --restore-with-cpu=AtomicSimpleCPU --standard-switch=1 --warmup-insts=50000000 --input=ocean_benchmark3.in --dsb-enable-bypass=true --dsb-enable-aging=true --dsb-bypass-counter=3 --dsb-virtual-bypass-counter=3 --dsb-random-promotion=4 --dsb-minimum-bypass-counter=12

info: Standard input is not a terminal, disabling listeners.
Replacement policy: DSBRP
L1I size: 32kB, assoc: 8
L1D size: 32kB, assoc: 8
L2 size: 256kB, assoc: 8
L3 size: 1MB, L3 assoc: 16
Switch at instruction count:1
src/sim/simulate.cc:194: info: Entering event queue @ 26962283379000.  Starting simulation...
src/sim/power_state.cc:105: warn: PowerState: Already in the requested power state, request ignored
Switched CPUS @ tick 26962283380500
switching cpus
Switch at instruction count:50000000
src/sim/simulate.cc:194: info: Entering event queue @ 26962283380500.  Starting simulation...
[DSB @ 100000 calls] bc=12 isBypassOn=false| real=220 virt=12545 notrack=87234 | touchRes=7096(eff=87,ineff=7009) resetRes=543(ineff=20,eff=523) | bc++=7029 bc--=610 inv=21
[DSB @ 200000 calls] bc=12 isBypassOn=false| real=284 virt=25168 notrack=174547 | touchRes=14257(eff=102,ineff=14155) resetRes=1071(ineff=20,eff=1051) | bc++=14175 bc--=1153 inv=138
[DSB @ 300000 calls] bc=12 isBypassOn=false| real=286 virt=37828 notrack=261885 | touchRes=21392(eff=102,ineff=21290) resetRes=1793(ineff=20,eff=1773) | bc++=21310 bc--=1875 inv=234
[DSB @ 400000 calls] bc=12 isBypassOn=false| real=302 virt=50370 notrack=349327 | touchRes=28615(eff=102,ineff=28513) resetRes=2385(ineff=20,eff=2365) | bc++=28533 bc--=2467 inv=316
[DSB @ 500000 calls] bc=12 isBypassOn=false| real=309 virt=62757 notrack=436933 | touchRes=35718(eff=102,ineff=35616) resetRes=2934(ineff=20,eff=2914) | bc++=35636 bc--=3016 inv=426
src/sim/simulate.cc:194: info: Entering event queue @ 27130876179500.  Starting simulation...
Switching CPUS @ tick 27130876179500
Simulation ends instruction count:250000000
switching cpus
**** REAL SIMULATION ****
src/sim/simulate.cc:194: info: Entering event queue @ 27130876310500.  Starting simulation...
[DSB @ 600000 calls] bc=12 isBypassOn=false| real=312 virt=75241 notrack=524446 | touchRes=42913(eff=102,ineff=42811) resetRes=3527(ineff=20,eff=3507) | bc++=42831 bc--=3609 inv=536
[DSB @ 700000 calls] bc=12 isBypassOn=false| real=313 virt=87539 notrack=612147 | touchRes=50019(eff=102,ineff=49917) resetRes=3954(ineff=20,eff=3934) | bc++=49937 bc--=4036 inv=599
[DSB @ 800000 calls] bc=12 isBypassOn=false| real=326 virt=99924 notrack=699749 | touchRes=57124(eff=106,ineff=57018) resetRes=4594(ineff=20,eff=4574) | bc++=57038 bc--=4680 inv=722
[DSB @ 900000 calls] bc=12 isBypassOn=false| real=331 virt=112453 notrack=787215 | touchRes=64252(eff=106,ineff=64146) resetRes=5265(ineff=20,eff=5245) | bc++=64166 bc--=5351 inv=832
[DSB @ 1000000 calls] bc=12 isBypassOn=false| real=333 virt=124872 notrack=874794 | touchRes=71215(eff=106,ineff=71109) resetRes=5847(ineff=20,eff=5827) | bc++=71129 bc--=5933 inv=933
[DSB @ 1100000 calls] bc=12 isBypassOn=false| real=355 virt=137049 notrack=962595 | touchRes=78288(eff=106,ineff=78182) resetRes=6480(ineff=20,eff=6460) | bc++=78202 bc--=6566 inv=1019
[DSB @ 1200000 calls] bc=12 isBypassOn=false| real=363 virt=149546 notrack=1050090 | touchRes=85412(eff=106,ineff=85306) resetRes=7113(ineff=20,eff=7093) | bc++=85326 bc--=7199 inv=1091
[DSB @ 1300000 calls] bc=12 isBypassOn=false| real=365 virt=162214 notrack=1137420 | touchRes=92767(eff=106,ineff=92661) resetRes=7651(ineff=20,eff=7631) | bc++=92681 bc--=7737 inv=1158
[DSB @ 1400000 calls] bc=12 isBypassOn=false| real=368 virt=174741 notrack=1224890 | touchRes=99964(eff=107,ineff=99857) resetRes=8218(ineff=20,eff=8198) | bc++=99877 bc--=8305 inv=1250
[DSB @ 1500000 calls] bc=12 isBypassOn=false| real=374 virt=187203 notrack=1312422 | touchRes=107229(eff=107,ineff=107122) resetRes=8647(ineff=20,eff=8627) | bc++=107142 bc--=8734 inv=1305
[DSB @ 1600000 calls] bc=12 isBypassOn=false| real=385 virt=199740 notrack=1399874 | touchRes=114280(eff=110,ineff=114170) resetRes=9373(ineff=20,eff=9353) | bc++=114190 bc--=9463 inv=1406
[DSB @ 1700000 calls] bc=12 isBypassOn=true| real=390 virt=212391 notrack=1487218 | touchRes=121535(eff=110,ineff=121425) resetRes=9799(ineff=20,eff=9779) | bc++=121445 bc--=9889 inv=1487
[DSB @ 1800000 calls] bc=12 isBypassOn=false| real=394 virt=224765 notrack=1574840 | touchRes=128484(eff=110,ineff=128374) resetRes=10657(ineff=20,eff=10637) | bc++=128394 bc--=10747 inv=1576
[DSB @ 1900000 calls] bc=12 isBypassOn=false| real=397 virt=237139 notrack=1662463 | touchRes=135753(eff=110,ineff=135643) resetRes=11119(ineff=20,eff=11099) | bc++=135663 bc--=11209 inv=1636
[DSB @ 2000000 calls] bc=12 isBypassOn=false| real=401 virt=249568 notrack=1750030 | touchRes=142874(eff=110,ineff=142764) resetRes=11653(ineff=21,eff=11632) | bc++=142785 bc--=11742 inv=1718
[DSB @ 2100000 calls] bc=12 isBypassOn=true| real=405 virt=261965 notrack=1837629 | touchRes=150087(eff=111,ineff=149976) resetRes=12210(ineff=21,eff=12189) | bc++=149997 bc--=12300 inv=1824
[DSB @ 2200000 calls] bc=12 isBypassOn=false| real=406 virt=274459 notrack=1925134 | touchRes=157177(eff=111,ineff=157066) resetRes=12751(ineff=21,eff=12730) | bc++=157087 bc--=12841 inv=1907
[DSB @ 2300000 calls] bc=12 isBypassOn=false| real=418 virt=286812 notrack=2012769 | touchRes=164168(eff=111,ineff=164057) resetRes=13512(ineff=21,eff=13491) | bc++=164078 bc--=13602 inv=2015
[DSB @ 2400000 calls] bc=12 isBypassOn=false| real=419 virt=299359 notrack=2100221 | touchRes=171355(eff=111,ineff=171244) resetRes=13991(ineff=21,eff=13970) | bc++=171265 bc--=14081 inv=2093
[DSB @ 2500000 calls] bc=12 isBypassOn=false| real=470 virt=311846 notrack=2187683 | touchRes=178443(eff=112,ineff=178331) resetRes=14749(ineff=21,eff=14728) | bc++=178352 bc--=14840 inv=2234
[DSB @ 2600000 calls] bc=12 isBypassOn=false| real=474 virt=324235 notrack=2275290 | touchRes=185727(eff=112,ineff=185615) resetRes=15291(ineff=21,eff=15270) | bc++=185636 bc--=15382 inv=2303
[DSB @ 2700000 calls] bc=12 isBypassOn=false| real=483 virt=336631 notrack=2362885 | touchRes=192893(eff=112,ineff=192781) resetRes=15761(ineff=21,eff=15740) | bc++=192802 bc--=15852 inv=2409
[DSB @ 2800000 calls] bc=12 isBypassOn=false| real=488 virt=349294 notrack=2450217 | touchRes=200202(eff=112,ineff=200090) resetRes=16274(ineff=21,eff=16253) | bc++=200111 bc--=16365 inv=2499
[DSB @ 2900000 calls] bc=12 isBypassOn=false| real=500 virt=361832 notrack=2537667 | touchRes=207410(eff=112,ineff=207298) resetRes=16780(ineff=21,eff=16759) | bc++=207319 bc--=16871 inv=2605
[DSB @ 3000000 calls] bc=12 isBypassOn=false| real=506 virt=374240 notrack=2625253 | touchRes=214544(eff=112,ineff=214432) resetRes=17396(ineff=21,eff=17375) | bc++=214453 bc--=17487 inv=2673
[DSB @ 3100000 calls] bc=11 isBypassOn=true| real=507 virt=387020 notrack=2712472 | touchRes=221765(eff=112,ineff=221653) resetRes=18037(ineff=21,eff=18016) | bc++=221674 bc--=18128 inv=2794
[DSB @ 3200000 calls] bc=12 isBypassOn=false| real=512 virt=399697 notrack=2799790 | touchRes=228993(eff=114,ineff=228879) resetRes=18539(ineff=22,eff=18517) | bc++=228901 bc--=18631 inv=2891
[DSB @ 3300000 calls] bc=12 isBypassOn=false| real=519 virt=412059 notrack=2887421 | touchRes=236160(eff=116,ineff=236044) resetRes=19162(ineff=22,eff=19140) | bc++=236066 bc--=19256 inv=2981
Exiting @ tick 27356651177500 because a thread reached the max instruction count
