warn: The `get_runtime_isa` function is deprecated. Please migrate away from using this function.
warn: The se.py script is deprecated. It will be removed in future releases of  gem5.
warn: The `get_runtime_isa` function is deprecated. Please migrate away from using this function.
Global frequency set at 1000000000000 ticks per second
src/base/statistics.hh:279: warn: One of the stats is a legacy stat. Legacy stat is a stat that does not belong to any statistics::Group. Legacy stat is deprecated.
src/base/remote_gdb.cc:418: warn: Sockets disabled, not accepting gdb connections
src/sim/process.cc:396: warn: Checkpoints for pipes, device drivers and sockets do not work.
gem5 Simulator System.  https://www.gem5.org
gem5 is copyrighted software; use the --copyright option for details.

gem5 version 23.0.0.1
gem5 compiled Apr  6 2026 01:50:35
gem5 started Apr  6 2026 04:46:38
gem5 executing on b49ce2a326be, pid 126692
command line: /opt/gem5/build/X86/gem5.opt --outdir=/workspace/results_l3/1MB/policy0Config3/perlbench /workspace/configs/run_spec_l3.py --rp-type=DSBRP --l3-size=1MB --l3-assoc=16 --cpu-type=DerivO3CPU --cmd=./perlbench_s_base.gem5-x86 '--options=-I./lib checkspam.pl 2500 5 25 11 150 1 1 1 1' --mem-size=8GB --maxinst=250000000 --caches --l2cache --l1d_size=32kB --l1i_size=32kB --l1d_assoc=8 --l1i_assoc=8 --l2_size=256kB --l2_assoc=8 --checkpoint-restore=1 --checkpoint-dir=/workspace/checkpoints/perlbench/m5out --restore-with-cpu=AtomicSimpleCPU --standard-switch=1 --warmup-insts=50000000 --dsb-enable-bypass=true --dsb-enable-aging=false --dsb-bypass-counter=3 --dsb-virtual-bypass-counter=3 --dsb-random-promotion=0 --dsb-minimum-bypass-counter=12

info: Standard input is not a terminal, disabling listeners.
Replacement policy: DSBRP
L1I size: 32kB, assoc: 8
L1D size: 32kB, assoc: 8
L2 size: 256kB, assoc: 8
L3 size: 1MB, L3 assoc: 16
Switch at instruction count:1
src/sim/simulate.cc:194: info: Entering event queue @ 27945348329000.  Starting simulation...
src/sim/simulate.cc:194: info: Entering event queue @ 27945348331000.  Starting simulation...
src/sim/power_state.cc:105: warn: PowerState: Already in the requested power state, request ignored
Switched CPUS @ tick 27945348331000
switching cpus
Switch at instruction count:50000000
src/sim/simulate.cc:194: info: Entering event queue @ 27945348332000.  Starting simulation...
[DSB @ 100000 calls] bc=2 isBypassOn=true| real=23512 virt=9535 notrack=66952 | touchRes=7588(eff=5253,ineff=2335) resetRes=2164(ineff=1466,eff=698) | bc++=3801 bc--=5951 inv=8666
src/sim/simulate.cc:194: info: Entering event queue @ 28062214631000.  Starting simulation...
Switching CPUS @ tick 28062214631000
Simulation ends instruction count:250000000
switching cpus
**** REAL SIMULATION ****
src/sim/simulate.cc:194: info: Entering event queue @ 28062214893250.  Starting simulation...
[DSB @ 200000 calls] bc=12 isBypassOn=true| real=53792 virt=18331 notrack=127876 | touchRes=14536(eff=10870,ineff=3666) resetRes=4621(ineff=3091,eff=1530) | bc++=6757 bc--=12400 inv=19853
[DSB @ 300000 calls] bc=9 isBypassOn=true| real=78445 virt=27631 notrack=193923 | touchRes=21480(eff=15976,ineff=5504) resetRes=7225(ineff=4706,eff=2519) | bc++=10210 bc--=18495 inv=29544
[DSB @ 400000 calls] bc=6 isBypassOn=true| real=95944 virt=37795 notrack=266260 | touchRes=26849(eff=19672,ineff=7177) resetRes=9066(ineff=5657,eff=3409) | bc++=12834 bc--=23081 inv=39387
Exiting @ tick 28228715664000 because a thread reached the max instruction count
