warn: The `get_runtime_isa` function is deprecated. Please migrate away from using this function.
warn: The se.py script is deprecated. It will be removed in future releases of  gem5.
warn: The `get_runtime_isa` function is deprecated. Please migrate away from using this function.
Global frequency set at 1000000000000 ticks per second
src/base/statistics.hh:279: warn: One of the stats is a legacy stat. Legacy stat is a stat that does not belong to any statistics::Group. Legacy stat is deprecated.
src/base/remote_gdb.cc:418: warn: Sockets disabled, not accepting gdb connections
src/sim/process.cc:396: warn: Checkpoints for pipes, device drivers and sockets do not work.
gem5 Simulator System.  https://www.gem5.org
gem5 is copyrighted software; use the --copyright option for details.

gem5 version 23.0.0.1
gem5 compiled Apr  6 2026 01:50:35
gem5 started Apr  6 2026 15:31:13
gem5 executing on b49ce2a326be, pid 239776
command line: /opt/gem5/build/X86/gem5.opt --outdir=/workspace/results_l3/2MB/policy1Config2/cam4 /workspace/configs/run_spec_l3.py --rp-type=DSBRP --l3-size=2MB --l3-assoc=16 --cpu-type=DerivO3CPU --cmd=./cam4_s_base.gem5-x86 --options= --mem-size=8GB --maxinst=250000000 --caches --l2cache --l1d_size=32kB --l1i_size=32kB --l1d_assoc=8 --l1i_assoc=8 --l2_size=256kB --l2_assoc=8 --checkpoint-restore=1 --checkpoint-dir=/workspace/checkpoints/cam4/m5out --restore-with-cpu=AtomicSimpleCPU --standard-switch=1 --warmup-insts=50000000 --dsb-enable-bypass=true --dsb-enable-aging=true --dsb-bypass-counter=6 --dsb-virtual-bypass-counter=3 --dsb-random-promotion=0 --dsb-minimum-bypass-counter=12

info: Standard input is not a terminal, disabling listeners.
Replacement policy: DSBRP
L1I size: 32kB, assoc: 8
L1D size: 32kB, assoc: 8
L2 size: 256kB, assoc: 8
L3 size: 2MB, L3 assoc: 16
Switch at instruction count:1
src/sim/simulate.cc:194: info: Entering event queue @ 25337984014000.  Starting simulation...
src/sim/power_state.cc:105: warn: PowerState: Already in the requested power state, request ignored
Switched CPUS @ tick 25337984015500
switching cpus
Switch at instruction count:50000000
src/sim/simulate.cc:194: info: Entering event queue @ 25337984015500.  Starting simulation...
[DSB @ 100000 calls] bc=12 isBypassOn=false| real=49 virt=12400 notrack=87550 | touchRes=9811(eff=25,ineff=9786) resetRes=24(ineff=14,eff=10) | bc++=9800 bc--=35 inv=6
[DSB @ 200000 calls] bc=12 isBypassOn=false| real=49 virt=24876 notrack=175074 | touchRes=19381(eff=25,ineff=19356) resetRes=24(ineff=14,eff=10) | bc++=19370 bc--=35 inv=7
[DSB @ 300000 calls] bc=12 isBypassOn=false| real=49 virt=37352 notrack=262598 | touchRes=28944(eff=25,ineff=28919) resetRes=24(ineff=14,eff=10) | bc++=28933 bc--=35 inv=7
[DSB @ 400000 calls] bc=12 isBypassOn=false| real=49 virt=49802 notrack=350148 | touchRes=38529(eff=25,ineff=38504) resetRes=24(ineff=14,eff=10) | bc++=38518 bc--=35 inv=7
[DSB @ 500000 calls] bc=12 isBypassOn=false| real=49 virt=62288 notrack=437662 | touchRes=48121(eff=25,ineff=48096) resetRes=24(ineff=14,eff=10) | bc++=48110 bc--=35 inv=7
src/sim/simulate.cc:194: info: Entering event queue @ 25488485285000.  Starting simulation...
Switching CPUS @ tick 25488485285000
Simulation ends instruction count:250000000
switching cpus
**** REAL SIMULATION ****
src/sim/simulate.cc:194: info: Entering event queue @ 25488485443750.  Starting simulation...
[DSB @ 600000 calls] bc=12 isBypassOn=false| real=186 virt=75027 notrack=524786 | touchRes=59016(eff=46,ineff=58970) resetRes=130(ineff=55,eff=75) | bc++=59025 bc--=121 inv=99
[DSB @ 700000 calls] bc=12 isBypassOn=false| real=186 virt=87406 notrack=612407 | touchRes=68405(eff=46,ineff=68359) resetRes=130(ineff=55,eff=75) | bc++=68414 bc--=121 inv=106
[DSB @ 800000 calls] bc=12 isBypassOn=false| real=186 virt=99814 notrack=699999 | touchRes=77914(eff=46,ineff=77868) resetRes=130(ineff=55,eff=75) | bc++=77923 bc--=121 inv=106
[DSB @ 900000 calls] bc=12 isBypassOn=false| real=186 virt=112345 notrack=787468 | touchRes=87532(eff=46,ineff=87486) resetRes=130(ineff=55,eff=75) | bc++=87541 bc--=121 inv=107
[DSB @ 1000000 calls] bc=12 isBypassOn=false| real=186 virt=124659 notrack=875154 | touchRes=97031(eff=46,ineff=96985) resetRes=130(ineff=55,eff=75) | bc++=97040 bc--=121 inv=107
[DSB @ 1100000 calls] bc=12 isBypassOn=false| real=402 virt=137115 notrack=962482 | touchRes=107288(eff=71,ineff=107217) resetRes=226(ineff=78,eff=148) | bc++=107295 bc--=219 inv=282
[DSB @ 1200000 calls] bc=12 isBypassOn=false| real=402 virt=149754 notrack=1049843 | touchRes=117148(eff=71,ineff=117077) resetRes=239(ineff=78,eff=161) | bc++=117155 bc--=232 inv=296
[DSB @ 1300000 calls] bc=12 isBypassOn=false| real=402 virt=162334 notrack=1137263 | touchRes=126747(eff=71,ineff=126676) resetRes=239(ineff=78,eff=161) | bc++=126754 bc--=232 inv=296
[DSB @ 1400000 calls] bc=12 isBypassOn=false| real=402 virt=174752 notrack=1224845 | touchRes=136215(eff=71,ineff=136144) resetRes=239(ineff=78,eff=161) | bc++=136222 bc--=232 inv=296
[DSB @ 1500000 calls] bc=12 isBypassOn=false| real=402 virt=187197 notrack=1312400 | touchRes=145739(eff=71,ineff=145668) resetRes=239(ineff=78,eff=161) | bc++=145746 bc--=232 inv=296
Exiting @ tick 25666149040000 because a thread reached the max instruction count
