warn: The `get_runtime_isa` function is deprecated. Please migrate away from using this function.
warn: The se.py script is deprecated. It will be removed in future releases of  gem5.
warn: The `get_runtime_isa` function is deprecated. Please migrate away from using this function.
Global frequency set at 1000000000000 ticks per second
src/mem/dram_interface.cc:690: warn: DRAM device capacity (8192 Mbytes) does not match the address range assigned (16384 Mbytes)
src/base/statistics.hh:279: warn: One of the stats is a legacy stat. Legacy stat is a stat that does not belong to any statistics::Group. Legacy stat is deprecated.
src/base/remote_gdb.cc:418: warn: Sockets disabled, not accepting gdb connections
src/sim/process.cc:396: warn: Checkpoints for pipes, device drivers and sockets do not work.
gem5 Simulator System.  https://www.gem5.org
gem5 is copyrighted software; use the --copyright option for details.

gem5 version 23.0.0.1
gem5 compiled Apr  6 2026 01:50:35
gem5 started Apr  6 2026 15:31:13
gem5 executing on b49ce2a326be, pid 239779
command line: /opt/gem5/build/X86/gem5.opt --outdir=/workspace/results_l3/2MB/policy1Config2/roms /workspace/configs/run_spec_l3.py --rp-type=DSBRP --l3-size=2MB --l3-assoc=16 --cpu-type=DerivO3CPU --cmd=./sroms_base.gem5-x86 --options= --mem-size=16GB --maxinst=250000000 --caches --l2cache --l1d_size=32kB --l1i_size=32kB --l1d_assoc=8 --l1i_assoc=8 --l2_size=256kB --l2_assoc=8 --checkpoint-restore=1 --checkpoint-dir=/workspace/checkpoints/roms/m5out --restore-with-cpu=AtomicSimpleCPU --standard-switch=1 --warmup-insts=50000000 --input=ocean_benchmark3.in --dsb-enable-bypass=true --dsb-enable-aging=true --dsb-bypass-counter=6 --dsb-virtual-bypass-counter=3 --dsb-random-promotion=0 --dsb-minimum-bypass-counter=12

info: Standard input is not a terminal, disabling listeners.
Replacement policy: DSBRP
L1I size: 32kB, assoc: 8
L1D size: 32kB, assoc: 8
L2 size: 256kB, assoc: 8
L3 size: 2MB, L3 assoc: 16
Switch at instruction count:1
src/sim/simulate.cc:194: info: Entering event queue @ 26962283379000.  Starting simulation...
src/sim/power_state.cc:105: warn: PowerState: Already in the requested power state, request ignored
Switched CPUS @ tick 26962283380500
switching cpus
Switch at instruction count:50000000
src/sim/simulate.cc:194: info: Entering event queue @ 26962283380500.  Starting simulation...
[DSB @ 100000 calls] bc=12 isBypassOn=false| real=25 virt=12487 notrack=87487 | touchRes=9606(eff=16,ineff=9590) resetRes=488(ineff=4,eff=484) | bc++=9594 bc--=500 inv=29
[DSB @ 200000 calls] bc=12 isBypassOn=false| real=27 virt=24959 notrack=175013 | touchRes=19082(eff=16,ineff=19066) resetRes=1184(ineff=4,eff=1180) | bc++=19070 bc--=1196 inv=278
[DSB @ 300000 calls] bc=12 isBypassOn=false| real=32 virt=37376 notrack=262591 | touchRes=28595(eff=16,ineff=28579) resetRes=1935(ineff=4,eff=1931) | bc++=28583 bc--=1947 inv=506
src/sim/simulate.cc:194: info: Entering event queue @ 27116944405500.  Starting simulation...
Switching CPUS @ tick 27116944405500
Simulation ends instruction count:250000000
switching cpus
**** REAL SIMULATION ****
src/sim/simulate.cc:194: info: Entering event queue @ 27116944610250.  Starting simulation...
[DSB @ 400000 calls] bc=12 isBypassOn=false| real=39 virt=49921 notrack=350039 | touchRes=37914(eff=17,ineff=37897) resetRes=2838(ineff=4,eff=2834) | bc++=37901 bc--=2851 inv=804
[DSB @ 500000 calls] bc=12 isBypassOn=false| real=47 virt=62598 notrack=437354 | touchRes=47289(eff=18,ineff=47271) resetRes=3776(ineff=4,eff=3772) | bc++=47275 bc--=3790 inv=1105
[DSB @ 600000 calls] bc=12 isBypassOn=false| real=49 virt=75118 notrack=524832 | touchRes=56677(eff=18,ineff=56659) resetRes=4530(ineff=5,eff=4525) | bc++=56664 bc--=4543 inv=1347
[DSB @ 700000 calls] bc=12 isBypassOn=false| real=56 virt=87550 notrack=612393 | touchRes=65924(eff=20,ineff=65904) resetRes=5266(ineff=6,eff=5260) | bc++=65910 bc--=5280 inv=1637
[DSB @ 800000 calls] bc=12 isBypassOn=false| real=59 virt=100127 notrack=699813 | touchRes=75219(eff=22,ineff=75197) resetRes=6123(ineff=6,eff=6117) | bc++=75203 bc--=6139 inv=1948
[DSB @ 900000 calls] bc=12 isBypassOn=false| real=65 virt=112556 notrack=787378 | touchRes=84587(eff=22,ineff=84565) resetRes=6906(ineff=7,eff=6899) | bc++=84572 bc--=6921 inv=2216
[DSB @ 1000000 calls] bc=12 isBypassOn=false| real=96 virt=125096 notrack=874807 | touchRes=93867(eff=22,ineff=93845) resetRes=7818(ineff=22,eff=7796) | bc++=93867 bc--=7818 inv=2514
[DSB @ 1100000 calls] bc=12 isBypassOn=false| real=102 virt=137414 notrack=962483 | touchRes=103021(eff=23,ineff=102998) resetRes=8675(ineff=23,eff=8652) | bc++=103021 bc--=8675 inv=2767
[DSB @ 1200000 calls] bc=12 isBypassOn=false| real=103 virt=150067 notrack=1049829 | touchRes=112439(eff=23,ineff=112416) resetRes=9501(ineff=23,eff=9478) | bc++=112439 bc--=9501 inv=3027
[DSB @ 1300000 calls] bc=12 isBypassOn=false| real=108 virt=162660 notrack=1137231 | touchRes=121876(eff=23,ineff=121853) resetRes=10404(ineff=23,eff=10381) | bc++=121876 bc--=10404 inv=3305
[DSB @ 1400000 calls] bc=12 isBypassOn=false| real=111 virt=175172 notrack=1224716 | touchRes=131221(eff=23,ineff=131198) resetRes=11230(ineff=23,eff=11207) | bc++=131221 bc--=11230 inv=3588
[DSB @ 1500000 calls] bc=12 isBypassOn=false| real=116 virt=187613 notrack=1312270 | touchRes=140488(eff=23,ineff=140465) resetRes=12082(ineff=24,eff=12058) | bc++=140489 bc--=12081 inv=3839
[DSB @ 1600000 calls] bc=12 isBypassOn=false| real=119 virt=200077 notrack=1399803 | touchRes=149746(eff=23,ineff=149723) resetRes=12879(ineff=24,eff=12855) | bc++=149747 bc--=12878 inv=4114
[DSB @ 1700000 calls] bc=12 isBypassOn=false| real=120 virt=212601 notrack=1487278 | touchRes=159145(eff=23,ineff=159122) resetRes=13709(ineff=24,eff=13685) | bc++=159146 bc--=13708 inv=4396
[DSB @ 1800000 calls] bc=12 isBypassOn=false| real=129 virt=224986 notrack=1574884 | touchRes=168409(eff=24,ineff=168385) resetRes=14481(ineff=27,eff=14454) | bc++=168412 bc--=14478 inv=4684
[DSB @ 1900000 calls] bc=12 isBypassOn=false| real=135 virt=237563 notrack=1662301 | touchRes=177833(eff=25,ineff=177808) resetRes=15268(ineff=28,eff=15240) | bc++=177836 bc--=15265 inv=4962
[DSB @ 2000000 calls] bc=12 isBypassOn=false| real=143 virt=250023 notrack=1749833 | touchRes=187196(eff=25,ineff=187171) resetRes=16144(ineff=29,eff=16115) | bc++=187200 bc--=16140 inv=5225
[DSB @ 2100000 calls] bc=12 isBypassOn=false| real=153 virt=262292 notrack=1837554 | touchRes=196547(eff=25,ineff=196522) resetRes=16910(ineff=31,eff=16879) | bc++=196553 bc--=16904 inv=5506
[DSB @ 2200000 calls] bc=12 isBypassOn=false| real=158 virt=274852 notrack=1924989 | touchRes=205716(eff=25,ineff=205691) resetRes=17803(ineff=32,eff=17771) | bc++=205723 bc--=17796 inv=5836
[DSB @ 2300000 calls] bc=12 isBypassOn=false| real=160 virt=287378 notrack=2012461 | touchRes=215132(eff=25,ineff=215107) resetRes=18579(ineff=32,eff=18547) | bc++=215139 bc--=18572 inv=6080
Exiting @ tick 27297779625500 because a thread reached the max instruction count
