warn: The `get_runtime_isa` function is deprecated. Please migrate away from using this function.
warn: The se.py script is deprecated. It will be removed in future releases of  gem5.
warn: The `get_runtime_isa` function is deprecated. Please migrate away from using this function.
Global frequency set at 1000000000000 ticks per second
src/base/statistics.hh:279: warn: One of the stats is a legacy stat. Legacy stat is a stat that does not belong to any statistics::Group. Legacy stat is deprecated.
src/base/remote_gdb.cc:418: warn: Sockets disabled, not accepting gdb connections
src/sim/process.cc:396: warn: Checkpoints for pipes, device drivers and sockets do not work.
gem5 Simulator System.  https://www.gem5.org
gem5 is copyrighted software; use the --copyright option for details.

gem5 version 23.0.0.1
gem5 compiled Apr  6 2026 01:50:35
gem5 started Apr  6 2026 09:21:41
gem5 executing on b49ce2a326be, pid 171864
command line: /opt/gem5/build/X86/gem5.opt --outdir=/workspace/results_l3/1MB/policy1Config3/cam4 /workspace/configs/run_spec_l3.py --rp-type=DSBRP --l3-size=1MB --l3-assoc=16 --cpu-type=DerivO3CPU --cmd=./cam4_s_base.gem5-x86 --options= --mem-size=8GB --maxinst=250000000 --caches --l2cache --l1d_size=32kB --l1i_size=32kB --l1d_assoc=8 --l1i_assoc=8 --l2_size=256kB --l2_assoc=8 --checkpoint-restore=1 --checkpoint-dir=/workspace/checkpoints/cam4/m5out --restore-with-cpu=AtomicSimpleCPU --standard-switch=1 --warmup-insts=50000000 --dsb-enable-bypass=true --dsb-enable-aging=true --dsb-bypass-counter=3 --dsb-virtual-bypass-counter=3 --dsb-random-promotion=4 --dsb-minimum-bypass-counter=12

info: Standard input is not a terminal, disabling listeners.
Replacement policy: DSBRP
L1I size: 32kB, assoc: 8
L1D size: 32kB, assoc: 8
L2 size: 256kB, assoc: 8
L3 size: 1MB, L3 assoc: 16
Switch at instruction count:1
src/sim/simulate.cc:194: info: Entering event queue @ 25337984014000.  Starting simulation...
src/sim/power_state.cc:105: warn: PowerState: Already in the requested power state, request ignored
Switched CPUS @ tick 25337984015500
switching cpus
Switch at instruction count:50000000
src/sim/simulate.cc:194: info: Entering event queue @ 25337984015500.  Starting simulation...
[DSB @ 100000 calls] bc=12 isBypassOn=false| real=1027 virt=12339 notrack=86633 | touchRes=7924(eff=333,ineff=7591) resetRes=244(ineff=125,eff=119) | bc++=7716 bc--=452 inv=68
[DSB @ 200000 calls] bc=12 isBypassOn=false| real=1027 virt=24904 notrack=174068 | touchRes=15272(eff=333,ineff=14939) resetRes=244(ineff=125,eff=119) | bc++=15064 bc--=452 inv=68
[DSB @ 300000 calls] bc=12 isBypassOn=false| real=1027 virt=37337 notrack=261635 | touchRes=22592(eff=333,ineff=22259) resetRes=244(ineff=125,eff=119) | bc++=22384 bc--=452 inv=68
[DSB @ 400000 calls] bc=12 isBypassOn=false| real=1027 virt=49907 notrack=349065 | touchRes=29928(eff=333,ineff=29595) resetRes=244(ineff=125,eff=119) | bc++=29720 bc--=452 inv=69
[DSB @ 500000 calls] bc=12 isBypassOn=false| real=1027 virt=62375 notrack=436597 | touchRes=37247(eff=333,ineff=36914) resetRes=244(ineff=125,eff=119) | bc++=37039 bc--=452 inv=69
src/sim/simulate.cc:194: info: Entering event queue @ 25488482231000.  Starting simulation...
Switching CPUS @ tick 25488482231000
Simulation ends instruction count:250000000
switching cpus
**** REAL SIMULATION ****
src/sim/simulate.cc:194: info: Entering event queue @ 25488482374750.  Starting simulation...
[DSB @ 600000 calls] bc=12 isBypassOn=false| real=1136 virt=74903 notrack=523960 | touchRes=45666(eff=346,ineff=45320) resetRes=547(ineff=142,eff=405) | bc++=45462 bc--=751 inv=250
[DSB @ 700000 calls] bc=12 isBypassOn=false| real=1136 virt=87474 notrack=611389 | touchRes=53295(eff=346,ineff=52949) resetRes=605(ineff=142,eff=463) | bc++=53091 bc--=809 inv=287
[DSB @ 800000 calls] bc=12 isBypassOn=false| real=1136 virt=100169 notrack=698694 | touchRes=60637(eff=346,ineff=60291) resetRes=605(ineff=142,eff=463) | bc++=60433 bc--=809 inv=287
[DSB @ 900000 calls] bc=12 isBypassOn=false| real=1136 virt=112690 notrack=786173 | touchRes=67992(eff=346,ineff=67646) resetRes=605(ineff=142,eff=463) | bc++=67788 bc--=809 inv=287
[DSB @ 1000000 calls] bc=12 isBypassOn=false| real=1136 virt=125077 notrack=873786 | touchRes=75255(eff=346,ineff=74909) resetRes=605(ineff=142,eff=463) | bc++=75051 bc--=809 inv=289
[DSB @ 1100000 calls] bc=12 isBypassOn=true| real=1296 virt=137578 notrack=961125 | touchRes=83234(eff=347,ineff=82887) resetRes=908(ineff=171,eff=737) | bc++=83058 bc--=1084 inv=471
[DSB @ 1200000 calls] bc=12 isBypassOn=false| real=1296 virt=150134 notrack=1048569 | touchRes=91155(eff=347,ineff=90808) resetRes=1050(ineff=171,eff=879) | bc++=90979 bc--=1226 inv=565
[DSB @ 1300000 calls] bc=12 isBypassOn=false| real=1296 virt=162527 notrack=1136176 | touchRes=98530(eff=347,ineff=98183) resetRes=1050(ineff=171,eff=879) | bc++=98354 bc--=1226 inv=566
[DSB @ 1400000 calls] bc=12 isBypassOn=false| real=1296 virt=174945 notrack=1223758 | touchRes=105877(eff=347,ineff=105530) resetRes=1050(ineff=171,eff=879) | bc++=105701 bc--=1226 inv=566
[DSB @ 1500000 calls] bc=12 isBypassOn=false| real=1296 virt=187429 notrack=1311274 | touchRes=113267(eff=347,ineff=112920) resetRes=1050(ineff=171,eff=879) | bc++=113091 bc--=1226 inv=567
[DSB @ 1600000 calls] bc=12 isBypassOn=false| real=1296 virt=199943 notrack=1398760 | touchRes=120620(eff=347,ineff=120273) resetRes=1050(ineff=171,eff=879) | bc++=120444 bc--=1226 inv=569
Exiting @ tick 25666586554500 because a thread reached the max instruction count
