warn: The `get_runtime_isa` function is deprecated. Please migrate away from using this function.
warn: The se.py script is deprecated. It will be removed in future releases of  gem5.
warn: The `get_runtime_isa` function is deprecated. Please migrate away from using this function.
Global frequency set at 1000000000000 ticks per second
src/mem/dram_interface.cc:690: warn: DRAM device capacity (8192 Mbytes) does not match the address range assigned (16384 Mbytes)
src/base/statistics.hh:279: warn: One of the stats is a legacy stat. Legacy stat is a stat that does not belong to any statistics::Group. Legacy stat is deprecated.
src/base/remote_gdb.cc:418: warn: Sockets disabled, not accepting gdb connections
src/sim/process.cc:396: warn: Checkpoints for pipes, device drivers and sockets do not work.
gem5 Simulator System.  https://www.gem5.org
gem5 is copyrighted software; use the --copyright option for details.

gem5 version 23.0.0.1
gem5 compiled Apr  6 2026 01:50:35
gem5 started Apr  6 2026 06:47:38
gem5 executing on b49ce2a326be, pid 146480
command line: /opt/gem5/build/X86/gem5.opt --outdir=/workspace/results_l3/1MB/policy1Config1/roms /workspace/configs/run_spec_l3.py --rp-type=DSBRP --l3-size=1MB --l3-assoc=16 --cpu-type=DerivO3CPU --cmd=./sroms_base.gem5-x86 --options= --mem-size=16GB --maxinst=250000000 --caches --l2cache --l1d_size=32kB --l1i_size=32kB --l1d_assoc=8 --l1i_assoc=8 --l2_size=256kB --l2_assoc=8 --checkpoint-restore=1 --checkpoint-dir=/workspace/checkpoints/roms/m5out --restore-with-cpu=AtomicSimpleCPU --standard-switch=1 --warmup-insts=50000000 --input=ocean_benchmark3.in --dsb-enable-bypass=false --dsb-enable-aging=true --dsb-bypass-counter=6 --dsb-virtual-bypass-counter=4 --dsb-random-promotion=0 --dsb-minimum-bypass-counter=8

info: Standard input is not a terminal, disabling listeners.
Replacement policy: DSBRP
L1I size: 32kB, assoc: 8
L1D size: 32kB, assoc: 8
L2 size: 256kB, assoc: 8
L3 size: 1MB, L3 assoc: 16
Switch at instruction count:1
src/sim/simulate.cc:194: info: Entering event queue @ 26962283379000.  Starting simulation...
src/sim/power_state.cc:105: warn: PowerState: Already in the requested power state, request ignored
Switched CPUS @ tick 26962283380500
switching cpus
Switch at instruction count:50000000
src/sim/simulate.cc:194: info: Entering event queue @ 26962283380500.  Starting simulation...
[DSB @ 100000 calls] bc=8 isBypassOn=false| real=0 virt=6236 notrack=93763 | touchRes=4460(eff=0,ineff=4460) resetRes=276(ineff=0,eff=276) | bc++=4460 bc--=276 inv=14
[DSB @ 200000 calls] bc=8 isBypassOn=false| real=0 virt=12537 notrack=187462 | touchRes=9011(eff=0,ineff=9011) resetRes=586(ineff=0,eff=586) | bc++=9011 bc--=586 inv=62
[DSB @ 300000 calls] bc=8 isBypassOn=true| real=0 virt=18724 notrack=281275 | touchRes=13501(eff=0,ineff=13501) resetRes=1009(ineff=0,eff=1009) | bc++=13501 bc--=1009 inv=116
[DSB @ 400000 calls] bc=8 isBypassOn=false| real=0 virt=24930 notrack=375069 | touchRes=18169(eff=0,ineff=18169) resetRes=1307(ineff=0,eff=1307) | bc++=18169 bc--=1307 inv=175
[DSB @ 500000 calls] bc=8 isBypassOn=false| real=0 virt=31246 notrack=468753 | touchRes=22742(eff=0,ineff=22742) resetRes=1619(ineff=0,eff=1619) | bc++=22742 bc--=1619 inv=238
src/sim/simulate.cc:194: info: Entering event queue @ 27130859811500.  Starting simulation...
Switching CPUS @ tick 27130859811500
Simulation ends instruction count:250000000
switching cpus
**** REAL SIMULATION ****
src/sim/simulate.cc:194: info: Entering event queue @ 27130859995000.  Starting simulation...
[DSB @ 600000 calls] bc=8 isBypassOn=false| real=0 virt=37593 notrack=562406 | touchRes=27508(eff=0,ineff=27508) resetRes=1895(ineff=0,eff=1895) | bc++=27508 bc--=1895 inv=289
[DSB @ 700000 calls] bc=8 isBypassOn=false| real=0 virt=43861 notrack=656138 | touchRes=32173(eff=0,ineff=32173) resetRes=2143(ineff=0,eff=2143) | bc++=32173 bc--=2143 inv=332
[DSB @ 800000 calls] bc=8 isBypassOn=false| real=0 virt=50067 notrack=749932 | touchRes=36680(eff=0,ineff=36680) resetRes=2477(ineff=0,eff=2477) | bc++=36680 bc--=2477 inv=393
[DSB @ 900000 calls] bc=8 isBypassOn=false| real=0 virt=56448 notrack=843551 | touchRes=41276(eff=0,ineff=41276) resetRes=2860(ineff=0,eff=2860) | bc++=41276 bc--=2860 inv=457
[DSB @ 1000000 calls] bc=8 isBypassOn=false| real=0 virt=62764 notrack=937235 | touchRes=45786(eff=0,ineff=45786) resetRes=3239(ineff=0,eff=3239) | bc++=45786 bc--=3239 inv=514
[DSB @ 1100000 calls] bc=8 isBypassOn=false| real=0 virt=69086 notrack=1030913 | touchRes=50346(eff=0,ineff=50346) resetRes=3581(ineff=0,eff=3581) | bc++=50346 bc--=3581 inv=566
[DSB @ 1200000 calls] bc=8 isBypassOn=false| real=0 virt=75436 notrack=1124563 | touchRes=54884(eff=0,ineff=54884) resetRes=3927(ineff=0,eff=3927) | bc++=54884 bc--=3927 inv=620
[DSB @ 1300000 calls] bc=8 isBypassOn=false| real=0 virt=81652 notrack=1218347 | touchRes=59546(eff=0,ineff=59546) resetRes=4199(ineff=0,eff=4199) | bc++=59546 bc--=4199 inv=658
[DSB @ 1400000 calls] bc=8 isBypassOn=false| real=0 virt=87935 notrack=1312064 | touchRes=64190(eff=0,ineff=64190) resetRes=4550(ineff=0,eff=4550) | bc++=64190 bc--=4550 inv=714
[DSB @ 1500000 calls] bc=8 isBypassOn=false| real=0 virt=94173 notrack=1405826 | touchRes=68779(eff=0,ineff=68779) resetRes=4804(ineff=0,eff=4804) | bc++=68779 bc--=4804 inv=760
[DSB @ 1600000 calls] bc=8 isBypassOn=false| real=0 virt=100318 notrack=1499681 | touchRes=73204(eff=0,ineff=73204) resetRes=5220(ineff=0,eff=5220) | bc++=73204 bc--=5220 inv=818
[DSB @ 1700000 calls] bc=8 isBypassOn=false| real=0 virt=106702 notrack=1593297 | touchRes=77901(eff=0,ineff=77901) resetRes=5463(ineff=0,eff=5463) | bc++=77901 bc--=5463 inv=868
[DSB @ 1800000 calls] bc=8 isBypassOn=false| real=0 virt=112953 notrack=1687046 | touchRes=82337(eff=0,ineff=82337) resetRes=5929(ineff=0,eff=5929) | bc++=82337 bc--=5929 inv=920
[DSB @ 1900000 calls] bc=7 isBypassOn=true| real=0 virt=119258 notrack=1780741 | touchRes=87099(eff=0,ineff=87099) resetRes=6181(ineff=0,eff=6181) | bc++=87099 bc--=6181 inv=951
[DSB @ 2000000 calls] bc=8 isBypassOn=false| real=0 virt=125578 notrack=1874421 | touchRes=91724(eff=0,ineff=91724) resetRes=6478(ineff=0,eff=6478) | bc++=91724 bc--=6478 inv=987
[DSB @ 2100000 calls] bc=8 isBypassOn=false| real=0 virt=131858 notrack=1968141 | touchRes=96342(eff=0,ineff=96342) resetRes=6783(ineff=0,eff=6783) | bc++=96342 bc--=6783 inv=1058
[DSB @ 2200000 calls] bc=8 isBypassOn=false| real=0 virt=138087 notrack=2061912 | touchRes=100865(eff=0,ineff=100865) resetRes=7072(ineff=0,eff=7072) | bc++=100865 bc--=7072 inv=1116
[DSB @ 2300000 calls] bc=8 isBypassOn=false| real=0 virt=144366 notrack=2155633 | touchRes=105443(eff=0,ineff=105443) resetRes=7495(ineff=0,eff=7495) | bc++=105443 bc--=7495 inv=1171
[DSB @ 2400000 calls] bc=8 isBypassOn=false| real=0 virt=150470 notrack=2249529 | touchRes=110000(eff=0,ineff=110000) resetRes=7749(ineff=0,eff=7749) | bc++=110000 bc--=7749 inv=1203
[DSB @ 2500000 calls] bc=8 isBypassOn=false| real=0 virt=156809 notrack=2343190 | touchRes=114537(eff=0,ineff=114537) resetRes=8143(ineff=0,eff=8143) | bc++=114537 bc--=8143 inv=1260
[DSB @ 2600000 calls] bc=8 isBypassOn=false| real=0 virt=163024 notrack=2436975 | touchRes=119234(eff=0,ineff=119234) resetRes=8410(ineff=0,eff=8410) | bc++=119234 bc--=8410 inv=1303
[DSB @ 2700000 calls] bc=8 isBypassOn=false| real=0 virt=169338 notrack=2530661 | touchRes=123819(eff=0,ineff=123819) resetRes=8681(ineff=0,eff=8681) | bc++=123819 bc--=8681 inv=1368
[DSB @ 2800000 calls] bc=8 isBypassOn=false| real=0 virt=175589 notrack=2624410 | touchRes=128384(eff=0,ineff=128384) resetRes=8974(ineff=0,eff=8974) | bc++=128384 bc--=8974 inv=1418
[DSB @ 2900000 calls] bc=8 isBypassOn=false| real=0 virt=181850 notrack=2718149 | touchRes=132963(eff=0,ineff=132963) resetRes=9247(ineff=0,eff=9247) | bc++=132963 bc--=9247 inv=1473
[DSB @ 3000000 calls] bc=8 isBypassOn=false| real=0 virt=188022 notrack=2811977 | touchRes=137466(eff=0,ineff=137466) resetRes=9562(ineff=0,eff=9562) | bc++=137466 bc--=9562 inv=1530
[DSB @ 3100000 calls] bc=8 isBypassOn=true| real=0 virt=194261 notrack=2905738 | touchRes=142065(eff=0,ineff=142065) resetRes=9912(ineff=0,eff=9912) | bc++=142065 bc--=9912 inv=1595
[DSB @ 3200000 calls] bc=8 isBypassOn=false| real=0 virt=200402 notrack=2999597 | touchRes=146535(eff=0,ineff=146535) resetRes=10200(ineff=0,eff=10200) | bc++=146535 bc--=10200 inv=1652
[DSB @ 3300000 calls] bc=8 isBypassOn=false| real=0 virt=206584 notrack=3093415 | touchRes=150998(eff=0,ineff=150998) resetRes=10551(ineff=0,eff=10551) | bc++=150998 bc--=10551 inv=1718
Exiting @ tick 27356623199500 because a thread reached the max instruction count
