warn: The `get_runtime_isa` function is deprecated. Please migrate away from using this function.
warn: The se.py script is deprecated. It will be removed in future releases of  gem5.
warn: The `get_runtime_isa` function is deprecated. Please migrate away from using this function.
Global frequency set at 1000000000000 ticks per second
src/base/statistics.hh:279: warn: One of the stats is a legacy stat. Legacy stat is a stat that does not belong to any statistics::Group. Legacy stat is deprecated.
src/base/remote_gdb.cc:418: warn: Sockets disabled, not accepting gdb connections
src/sim/process.cc:396: warn: Checkpoints for pipes, device drivers and sockets do not work.
gem5 Simulator System.  https://www.gem5.org
gem5 is copyrighted software; use the --copyright option for details.

gem5 version 23.0.0.1
gem5 compiled Apr  6 2026 01:50:35
gem5 started Apr  6 2026 07:03:39
gem5 executing on b49ce2a326be, pid 149210
command line: /opt/gem5/build/X86/gem5.opt --outdir=/workspace/results_l3/1MB/policy1Config2/omnetpp /workspace/configs/run_spec_l3.py --rp-type=DSBRP --l3-size=1MB --l3-assoc=16 --cpu-type=DerivO3CPU --cmd=./omnetpp_s_base.gem5-x86 '--options=-c General -r 0' --mem-size=8GB --maxinst=250000000 --caches --l2cache --l1d_size=32kB --l1i_size=32kB --l1d_assoc=8 --l1i_assoc=8 --l2_size=256kB --l2_assoc=8 --checkpoint-restore=1 --checkpoint-dir=/workspace/checkpoints/omnetpp/m5out --restore-with-cpu=AtomicSimpleCPU --standard-switch=1 --warmup-insts=50000000 --dsb-enable-bypass=true --dsb-enable-aging=true --dsb-bypass-counter=6 --dsb-virtual-bypass-counter=3 --dsb-random-promotion=0 --dsb-minimum-bypass-counter=12

info: Standard input is not a terminal, disabling listeners.
Replacement policy: DSBRP
L1I size: 32kB, assoc: 8
L1D size: 32kB, assoc: 8
L2 size: 256kB, assoc: 8
L3 size: 1MB, L3 assoc: 16
Switch at instruction count:1
src/sim/simulate.cc:194: info: Entering event queue @ 27633443439000.  Starting simulation...
src/sim/power_state.cc:105: warn: PowerState: Already in the requested power state, request ignored
Switched CPUS @ tick 27633443440000
switching cpus
Switch at instruction count:50000000
src/sim/simulate.cc:194: info: Entering event queue @ 27633443440000.  Starting simulation...
[DSB @ 100000 calls] bc=12 isBypassOn=false| real=32 virt=12463 notrack=87504 | touchRes=8084(eff=12,ineff=8072) resetRes=442(ineff=1,eff=441) | bc++=8073 bc--=453 inv=68
[DSB @ 200000 calls] bc=12 isBypassOn=false| real=33 virt=24929 notrack=175037 | touchRes=16330(eff=12,ineff=16318) resetRes=881(ineff=1,eff=880) | bc++=16319 bc--=892 inv=211
[DSB @ 300000 calls] bc=12 isBypassOn=false| real=35 virt=37283 notrack=262681 | touchRes=24597(eff=12,ineff=24585) resetRes=1333(ineff=1,eff=1332) | bc++=24586 bc--=1344 inv=368
[DSB @ 400000 calls] bc=12 isBypassOn=false| real=38 virt=49749 notrack=350212 | touchRes=32952(eff=12,ineff=32940) resetRes=1719(ineff=1,eff=1718) | bc++=32941 bc--=1730 inv=492
src/sim/simulate.cc:194: info: Entering event queue @ 27787092188500.  Starting simulation...
Switching CPUS @ tick 27787092188500
Simulation ends instruction count:250000000
switching cpus
**** REAL SIMULATION ****
src/sim/simulate.cc:194: info: Entering event queue @ 27787092613500.  Starting simulation...
[DSB @ 500000 calls] bc=12 isBypassOn=false| real=39 virt=62299 notrack=437661 | touchRes=41261(eff=12,ineff=41249) resetRes=2135(ineff=1,eff=2134) | bc++=41250 bc--=2146 inv=633
[DSB @ 600000 calls] bc=12 isBypassOn=false| real=41 virt=74689 notrack=525269 | touchRes=49475(eff=12,ineff=49463) resetRes=2689(ineff=1,eff=2688) | bc++=49464 bc--=2700 inv=807
[DSB @ 700000 calls] bc=12 isBypassOn=false| real=42 virt=87253 notrack=612704 | touchRes=57780(eff=12,ineff=57768) resetRes=3321(ineff=1,eff=3320) | bc++=57769 bc--=3332 inv=998
[DSB @ 800000 calls] bc=12 isBypassOn=false| real=43 virt=99730 notrack=700226 | touchRes=65868(eff=12,ineff=65856) resetRes=3978(ineff=1,eff=3977) | bc++=65857 bc--=3989 inv=1194
[DSB @ 900000 calls] bc=12 isBypassOn=false| real=44 virt=112226 notrack=787729 | touchRes=74112(eff=13,ineff=74099) resetRes=4571(ineff=1,eff=4570) | bc++=74100 bc--=4583 inv=1354
[DSB @ 1000000 calls] bc=12 isBypassOn=false| real=46 virt=124657 notrack=875296 | touchRes=82274(eff=14,ineff=82260) resetRes=5141(ineff=1,eff=5140) | bc++=82261 bc--=5154 inv=1521
[DSB @ 1100000 calls] bc=12 isBypassOn=false| real=49 virt=137071 notrack=962879 | touchRes=90597(eff=14,ineff=90583) resetRes=5649(ineff=1,eff=5648) | bc++=90584 bc--=5662 inv=1673
[DSB @ 1200000 calls] bc=12 isBypassOn=false| real=49 virt=149599 notrack=1050351 | touchRes=98895(eff=14,ineff=98881) resetRes=6157(ineff=1,eff=6156) | bc++=98882 bc--=6170 inv=1841
[DSB @ 1300000 calls] bc=12 isBypassOn=false| real=50 virt=161931 notrack=1138018 | touchRes=107120(eff=14,ineff=107106) resetRes=6677(ineff=1,eff=6676) | bc++=107107 bc--=6690 inv=2005
[DSB @ 1400000 calls] bc=12 isBypassOn=false| real=53 virt=174203 notrack=1225743 | touchRes=115373(eff=14,ineff=115359) resetRes=7196(ineff=1,eff=7195) | bc++=115360 bc--=7209 inv=2156
[DSB @ 1500000 calls] bc=12 isBypassOn=false| real=55 virt=186935 notrack=1313009 | touchRes=123687(eff=14,ineff=123673) resetRes=7659(ineff=1,eff=7658) | bc++=123674 bc--=7672 inv=2322
[DSB @ 1600000 calls] bc=12 isBypassOn=false| real=55 virt=199504 notrack=1400440 | touchRes=131858(eff=14,ineff=131844) resetRes=8251(ineff=1,eff=8250) | bc++=131845 bc--=8264 inv=2488
[DSB @ 1700000 calls] bc=12 isBypassOn=false| real=57 virt=212056 notrack=1487886 | touchRes=140159(eff=14,ineff=140145) resetRes=8771(ineff=1,eff=8770) | bc++=140146 bc--=8784 inv=2660
[DSB @ 1800000 calls] bc=12 isBypassOn=false| real=59 virt=224629 notrack=1575311 | touchRes=148484(eff=14,ineff=148470) resetRes=9269(ineff=1,eff=9268) | bc++=148471 bc--=9282 inv=2805
[DSB @ 1900000 calls] bc=12 isBypassOn=false| real=60 virt=237210 notrack=1662729 | touchRes=156818(eff=14,ineff=156804) resetRes=9723(ineff=1,eff=9722) | bc++=156805 bc--=9736 inv=2949
[DSB @ 2000000 calls] bc=12 isBypassOn=false| real=60 virt=249760 notrack=1750179 | touchRes=165213(eff=14,ineff=165199) resetRes=10162(ineff=1,eff=10161) | bc++=165200 bc--=10175 inv=3097
[DSB @ 2100000 calls] bc=12 isBypassOn=false| real=64 virt=262281 notrack=1837654 | touchRes=173507(eff=14,ineff=173493) resetRes=10639(ineff=1,eff=10638) | bc++=173494 bc--=10652 inv=3253
[DSB @ 2200000 calls] bc=12 isBypassOn=false| real=66 virt=274823 notrack=1925110 | touchRes=181839(eff=14,ineff=181825) resetRes=11158(ineff=2,eff=11156) | bc++=181827 bc--=11170 inv=3413
[DSB @ 2300000 calls] bc=12 isBypassOn=false| real=67 virt=287230 notrack=2012702 | touchRes=190074(eff=14,ineff=190060) resetRes=11668(ineff=2,eff=11666) | bc++=190062 bc--=11680 inv=3572
[DSB @ 2400000 calls] bc=12 isBypassOn=false| real=70 virt=299724 notrack=2100205 | touchRes=198456(eff=16,ineff=198440) resetRes=12117(ineff=2,eff=12115) | bc++=198442 bc--=12131 inv=3713
[DSB @ 2500000 calls] bc=12 isBypassOn=false| real=72 virt=312399 notrack=2187528 | touchRes=206796(eff=16,ineff=206780) resetRes=12642(ineff=2,eff=12640) | bc++=206782 bc--=12656 inv=3881
[DSB @ 2600000 calls] bc=12 isBypassOn=false| real=73 virt=324992 notrack=2274934 | touchRes=215132(eff=16,ineff=215116) resetRes=13148(ineff=2,eff=13146) | bc++=215118 bc--=13162 inv=4047
[DSB @ 2700000 calls] bc=12 isBypassOn=false| real=77 virt=337430 notrack=2362492 | touchRes=223381(eff=16,ineff=223365) resetRes=13692(ineff=3,eff=13689) | bc++=223368 bc--=13705 inv=4217
[DSB @ 2800000 calls] bc=12 isBypassOn=false| real=80 virt=349892 notrack=2450027 | touchRes=231633(eff=16,ineff=231617) resetRes=14324(ineff=3,eff=14321) | bc++=231620 bc--=14337 inv=4394
[DSB @ 2900000 calls] bc=12 isBypassOn=false| real=83 virt=362243 notrack=2537673 | touchRes=239842(eff=16,ineff=239826) resetRes=14837(ineff=4,eff=14833) | bc++=239830 bc--=14849 inv=4556
[DSB @ 3000000 calls] bc=12 isBypassOn=false| real=86 virt=374686 notrack=2625227 | touchRes=248146(eff=16,ineff=248130) resetRes=15397(ineff=4,eff=15393) | bc++=248134 bc--=15409 inv=4731
[DSB @ 3100000 calls] bc=12 isBypassOn=false| real=89 virt=387180 notrack=2712730 | touchRes=256533(eff=16,ineff=256517) resetRes=15908(ineff=4,eff=15904) | bc++=256521 bc--=15920 inv=4884
Exiting @ tick 28042997615000 because a thread reached the max instruction count
