warn: The `get_runtime_isa` function is deprecated. Please migrate away from using this function.
warn: The se.py script is deprecated. It will be removed in future releases of  gem5.
warn: The `get_runtime_isa` function is deprecated. Please migrate away from using this function.
Global frequency set at 1000000000000 ticks per second
src/base/statistics.hh:279: warn: One of the stats is a legacy stat. Legacy stat is a stat that does not belong to any statistics::Group. Legacy stat is deprecated.
src/base/remote_gdb.cc:418: warn: Sockets disabled, not accepting gdb connections
src/sim/process.cc:396: warn: Checkpoints for pipes, device drivers and sockets do not work.
gem5 Simulator System.  https://www.gem5.org
gem5 is copyrighted software; use the --copyright option for details.

gem5 version 23.0.0.1
gem5 compiled Apr  6 2026 01:50:35
gem5 started Apr  7 2026 11:06:29
gem5 executing on b49ce2a326be, pid 91178
command line: /opt/gem5/build/X86/gem5.opt --outdir=/workspace/results_l3/4MB/policy0Config3/mcf /workspace/configs/run_spec_l3.py --rp-type=DSBRP --l3-size=4MB --l3-assoc=16 --cpu-type=DerivO3CPU --cmd=./mcf_s_base.gem5-x86 --options=inp.in --mem-size=8GB --maxinst=250000000 --caches --l2cache --l1d_size=32kB --l1i_size=32kB --l1d_assoc=8 --l1i_assoc=8 --l2_size=256kB --l2_assoc=8 --checkpoint-restore=1 --checkpoint-dir=/workspace/checkpoints/mcf/m5out --restore-with-cpu=AtomicSimpleCPU --standard-switch=1 --warmup-insts=50000000 --dsb-enable-bypass=true --dsb-enable-aging=false --dsb-bypass-counter=3 --dsb-virtual-bypass-counter=3 --dsb-random-promotion=0 --dsb-minimum-bypass-counter=12

info: Standard input is not a terminal, disabling listeners.
Replacement policy: DSBRP
L1I size: 32kB, assoc: 8
L1D size: 32kB, assoc: 8
L2 size: 256kB, assoc: 8
L3 size: 4MB, L3 assoc: 16
Switch at instruction count:1
src/sim/simulate.cc:194: info: Entering event queue @ 24065090964500.  Starting simulation...
src/sim/simulate.cc:194: info: Entering event queue @ 24065090965500.  Starting simulation...
src/sim/power_state.cc:105: warn: PowerState: Already in the requested power state, request ignored
Switched CPUS @ tick 24065090965500
switching cpus
Switch at instruction count:50000000
src/sim/simulate.cc:194: info: Entering event queue @ 24065090966000.  Starting simulation...
[DSB @ 100000 calls] bc=12 isBypassOn=false| real=251 virt=12415 notrack=87333 | touchRes=10977(eff=139,ineff=10838) resetRes=102(ineff=65,eff=37) | bc++=10903 bc--=176 inv=891
[DSB @ 200000 calls] bc=12 isBypassOn=false| real=254 virt=24904 notrack=174841 | touchRes=20815(eff=139,ineff=20676) resetRes=192(ineff=65,eff=127) | bc++=20741 bc--=266 inv=3150
src/sim/simulate.cc:194: info: Entering event queue @ 24214024893500.  Starting simulation...
Switching CPUS @ tick 24214024893500
Simulation ends instruction count:250000000
switching cpus
**** REAL SIMULATION ****
src/sim/simulate.cc:194: info: Entering event queue @ 24214025056000.  Starting simulation...
[DSB @ 300000 calls] bc=12 isBypassOn=false| real=254 virt=37395 notrack=262350 | touchRes=30773(eff=139,ineff=30634) resetRes=285(ineff=65,eff=220) | bc++=30699 bc--=359 inv=5382
[DSB @ 400000 calls] bc=12 isBypassOn=false| real=254 virt=49868 notrack=349877 | touchRes=40560(eff=139,ineff=40421) resetRes=341(ineff=65,eff=276) | bc++=40486 bc--=415 inv=7567
[DSB @ 500000 calls] bc=12 isBypassOn=false| real=254 virt=62184 notrack=437561 | touchRes=50122(eff=139,ineff=49983) resetRes=400(ineff=65,eff=335) | bc++=50048 bc--=474 inv=9924
[DSB @ 600000 calls] bc=12 isBypassOn=false| real=254 virt=74792 notrack=524953 | touchRes=60029(eff=139,ineff=59890) resetRes=485(ineff=65,eff=420) | bc++=59955 bc--=559 inv=12181
[DSB @ 700000 calls] bc=12 isBypassOn=false| real=255 virt=87196 notrack=612548 | touchRes=69804(eff=139,ineff=69665) resetRes=562(ineff=65,eff=497) | bc++=69730 bc--=636 inv=14430
[DSB @ 800000 calls] bc=12 isBypassOn=false| real=255 virt=99637 notrack=700107 | touchRes=79635(eff=139,ineff=79496) resetRes=626(ineff=65,eff=561) | bc++=79561 bc--=700 inv=16703
[DSB @ 900000 calls] bc=12 isBypassOn=false| real=255 virt=112161 notrack=787583 | touchRes=89559(eff=139,ineff=89420) resetRes=686(ineff=65,eff=621) | bc++=89485 bc--=760 inv=18955
[DSB @ 1000000 calls] bc=12 isBypassOn=false| real=255 virt=124585 notrack=875159 | touchRes=99448(eff=139,ineff=99309) resetRes=762(ineff=65,eff=697) | bc++=99374 bc--=836 inv=21143
[DSB @ 1100000 calls] bc=12 isBypassOn=false| real=255 virt=137093 notrack=962651 | touchRes=109167(eff=139,ineff=109028) resetRes=860(ineff=65,eff=795) | bc++=109093 bc--=934 inv=23413
[DSB @ 1200000 calls] bc=12 isBypassOn=false| real=255 virt=149550 notrack=1050194 | touchRes=119031(eff=139,ineff=118892) resetRes=930(ineff=65,eff=865) | bc++=118957 bc--=1004 inv=25622
[DSB @ 1300000 calls] bc=12 isBypassOn=false| real=255 virt=162145 notrack=1137599 | touchRes=129278(eff=139,ineff=129139) resetRes=987(ineff=65,eff=922) | bc++=129204 bc--=1061 inv=27722
[DSB @ 1400000 calls] bc=12 isBypassOn=false| real=255 virt=174619 notrack=1225125 | touchRes=138884(eff=139,ineff=138745) resetRes=1058(ineff=65,eff=993) | bc++=138810 bc--=1132 inv=29990
[DSB @ 1500000 calls] bc=12 isBypassOn=false| real=255 virt=186802 notrack=1312942 | touchRes=148446(eff=139,ineff=148307) resetRes=1170(ineff=65,eff=1105) | bc++=148372 bc--=1244 inv=32271
[DSB @ 1600000 calls] bc=12 isBypassOn=false| real=255 virt=199213 notrack=1400531 | touchRes=158149(eff=139,ineff=158010) resetRes=1248(ineff=65,eff=1183) | bc++=158075 bc--=1322 inv=34569
[DSB @ 1700000 calls] bc=12 isBypassOn=false| real=256 virt=211620 notrack=1488123 | touchRes=168120(eff=139,ineff=167981) resetRes=1320(ineff=65,eff=1255) | bc++=168046 bc--=1394 inv=36634
Exiting @ tick 24406415084000 because a thread reached the max instruction count
