warn: The `get_runtime_isa` function is deprecated. Please migrate away from using this function.
warn: The se.py script is deprecated. It will be removed in future releases of  gem5.
warn: The `get_runtime_isa` function is deprecated. Please migrate away from using this function.
Global frequency set at 1000000000000 ticks per second
src/base/statistics.hh:279: warn: One of the stats is a legacy stat. Legacy stat is a stat that does not belong to any statistics::Group. Legacy stat is deprecated.
src/base/remote_gdb.cc:418: warn: Sockets disabled, not accepting gdb connections
src/sim/process.cc:396: warn: Checkpoints for pipes, device drivers and sockets do not work.
gem5 Simulator System.  https://www.gem5.org
gem5 is copyrighted software; use the --copyright option for details.

gem5 version 23.0.0.1
gem5 compiled Apr  6 2026 01:50:35
gem5 started Apr  6 2026 08:20:02
gem5 executing on b49ce2a326be, pid 161814
command line: /opt/gem5/build/X86/gem5.opt --outdir=/workspace/results_l3/1MB/policy1Config3/xalancbmk /workspace/configs/run_spec_l3.py --rp-type=DSBRP --l3-size=1MB --l3-assoc=16 --cpu-type=DerivO3CPU --cmd=./xalancbmk_s_base.gem5-x86 '--options=-v t5.xml xalanc.xsl' --mem-size=8GB --maxinst=250000000 --caches --l2cache --l1d_size=32kB --l1i_size=32kB --l1d_assoc=8 --l1i_assoc=8 --l2_size=256kB --l2_assoc=8 --checkpoint-restore=1 --checkpoint-dir=/workspace/checkpoints/xalancbmk/m5out --restore-with-cpu=AtomicSimpleCPU --standard-switch=1 --warmup-insts=50000000 --dsb-enable-bypass=true --dsb-enable-aging=true --dsb-bypass-counter=3 --dsb-virtual-bypass-counter=3 --dsb-random-promotion=4 --dsb-minimum-bypass-counter=12

info: Standard input is not a terminal, disabling listeners.
Replacement policy: DSBRP
L1I size: 32kB, assoc: 8
L1D size: 32kB, assoc: 8
L2 size: 256kB, assoc: 8
L3 size: 1MB, L3 assoc: 16
Switch at instruction count:1
src/sim/simulate.cc:194: info: Entering event queue @ 27962974663500.  Starting simulation...
src/sim/simulate.cc:194: info: Entering event queue @ 27962974665000.  Starting simulation...
src/sim/power_state.cc:105: warn: PowerState: Already in the requested power state, request ignored
Switched CPUS @ tick 27962974665000
switching cpus
Switch at instruction count:50000000
src/sim/simulate.cc:194: info: Entering event queue @ 27962974666000.  Starting simulation...
[DSB @ 100000 calls] bc=12 isBypassOn=false| real=13727 virt=10625 notrack=75647 | touchRes=6664(eff=930,ineff=5734) resetRes=516(ineff=94,eff=422) | bc++=5828 bc--=1352 inv=3304
[DSB @ 200000 calls] bc=12 isBypassOn=false| real=16513 virt=22665 notrack=160821 | touchRes=14699(eff=1768,ineff=12931) resetRes=865(ineff=116,eff=749) | bc++=13047 bc--=2517 inv=3475
[DSB @ 300000 calls] bc=0 isBypassOn=true| real=58734 virt=29959 notrack=211306 | touchRes=24972(eff=7692,ineff=17280) resetRes=1235(ineff=117,eff=1118) | bc++=17397 bc--=8810 inv=3550
[DSB @ 400000 calls] bc=0 isBypassOn=true| real=158732 virt=29959 notrack=211308 | touchRes=37656(eff=20376,ineff=17280) resetRes=1239(ineff=121,eff=1118) | bc++=17401 bc--=21494 inv=3550
[DSB @ 500000 calls] bc=12 isBypassOn=false| real=196862 virt=37736 notrack=265401 | touchRes=46566(eff=25228,ineff=21338) resetRes=1629(ineff=249,eff=1380) | bc++=21587 bc--=26608 inv=4604
[DSB @ 600000 calls] bc=0 isBypassOn=true| real=200939 virt=49775 notrack=349285 | touchRes=54244(eff=25483,ineff=28761) resetRes=1896(ineff=249,eff=1647) | bc++=29010 bc--=27130 inv=4631
[DSB @ 700000 calls] bc=12 isBypassOn=false| real=300307 virt=49860 notrack=349832 | touchRes=66135(eff=37371,ineff=28764) resetRes=2048(ineff=378,eff=1670) | bc++=29142 bc--=39041 inv=4708
src/sim/simulate.cc:194: info: Entering event queue @ 28137705819500.  Starting simulation...
Switching CPUS @ tick 28137705819500
Simulation ends instruction count:250000000
switching cpus
**** REAL SIMULATION ****
src/sim/simulate.cc:194: info: Entering event queue @ 28137706300500.  Starting simulation...
[DSB @ 800000 calls] bc=12 isBypassOn=false| real=322968 virt=59526 notrack=417505 | touchRes=73589(eff=39707,ineff=33882) resetRes=2762(ineff=406,eff=2356) | bc++=34288 bc--=42063 inv=5811
[DSB @ 900000 calls] bc=12 isBypassOn=false| real=329571 virt=71292 notrack=499136 | touchRes=80999(eff=40543,ineff=40456) resetRes=3397(ineff=418,eff=2979) | bc++=40874 bc--=43522 inv=6630
[DSB @ 1000000 calls] bc=0 isBypassOn=true| real=343811 virt=82142 notrack=574046 | touchRes=88335(eff=41385,ineff=46950) resetRes=3673(ineff=418,eff=3255) | bc++=47368 bc--=44640 inv=6699
[DSB @ 1100000 calls] bc=0 isBypassOn=true| real=419331 virt=85220 notrack=595448 | touchRes=94074(eff=45887,ineff=48187) resetRes=4222(ineff=647,eff=3575) | bc++=48834 bc--=49462 inv=10161
[DSB @ 1200000 calls] bc=12 isBypassOn=false| real=468274 virt=91625 notrack=640100 | touchRes=100281(eff=48799,ineff=51482) resetRes=4654(ineff=886,eff=3768) | bc++=52368 bc--=52567 inv=12194
[DSB @ 1300000 calls] bc=12 isBypassOn=false| real=468274 virt=104248 notrack=727477 | touchRes=107762(eff=48799,ineff=58963) resetRes=4769(ineff=886,eff=3883) | bc++=59849 bc--=52682 inv=12198
[DSB @ 1400000 calls] bc=12 isBypassOn=false| real=468274 virt=116839 notrack=814886 | touchRes=115273(eff=48799,ineff=66474) resetRes=4916(ineff=886,eff=4030) | bc++=67360 bc--=52829 inv=12203
[DSB @ 1500000 calls] bc=12 isBypassOn=false| real=468979 virt=129212 notrack=901808 | touchRes=122763(eff=48803,ineff=73960) resetRes=5189(ineff=886,eff=4303) | bc++=74846 bc--=53106 inv=12729
[DSB @ 1600000 calls] bc=12 isBypassOn=false| real=468998 virt=141781 notrack=989220 | touchRes=129928(eff=48804,ineff=81124) resetRes=5773(ineff=886,eff=4887) | bc++=82010 bc--=53691 inv=12749
[DSB @ 1700000 calls] bc=0 isBypassOn=true| real=519501 virt=147894 notrack=1032604 | touchRes=137721(eff=52541,ineff=85180) resetRes=6067(ineff=902,eff=5165) | bc++=86082 bc--=57706 inv=13867
[DSB @ 1800000 calls] bc=12 isBypassOn=false| real=590521 virt=151620 notrack=1057858 | touchRes=144631(eff=57648,ineff=86983) resetRes=6247(ineff=951,eff=5296) | bc++=87934 bc--=62944 inv=14572
[DSB @ 1900000 calls] bc=12 isBypassOn=false| real=590522 virt=164195 notrack=1145282 | touchRes=152321(eff=57648,ineff=94673) resetRes=6269(ineff=951,eff=5318) | bc++=95624 bc--=62966 inv=14576
[DSB @ 2000000 calls] bc=0 isBypassOn=true| real=635372 virt=171064 notrack=1193563 | touchRes=159843(eff=60619,ineff=99224) resetRes=6428(ineff=1003,eff=5425) | bc++=100227 bc--=66044 inv=14587
[DSB @ 2100000 calls] bc=0 isBypassOn=true| real=735292 virt=171076 notrack=1193631 | touchRes=165890(eff=66666,ineff=99224) resetRes=6465(ineff=1030,eff=5435) | bc++=100254 bc--=72101 inv=14603
[DSB @ 2200000 calls] bc=12 isBypassOn=false| real=780509 virt=177972 notrack=1241518 | touchRes=173826(eff=71103,ineff=102723) resetRes=6914(ineff=1208,eff=5706) | bc++=103931 bc--=76809 inv=16855
[DSB @ 2300000 calls] bc=0 isBypassOn=true| real=814435 virt=186295 notrack=1299269 | touchRes=180954(eff=73221,ineff=107733) resetRes=7308(ineff=1310,eff=5998) | bc++=109043 bc--=79219 inv=17141
[DSB @ 2400000 calls] bc=0 isBypassOn=true| real=914433 virt=186295 notrack=1299271 | touchRes=180963(eff=73230,ineff=107733) resetRes=7308(ineff=1310,eff=5998) | bc++=109043 bc--=79228 inv=17143
[DSB @ 2500000 calls] bc=0 isBypassOn=true| real=1014413 virt=186301 notrack=1299285 | touchRes=182514(eff=74780,ineff=107734) resetRes=7316(ineff=1316,eff=6000) | bc++=109050 bc--=80780 inv=17149
[DSB @ 2600000 calls] bc=0 isBypassOn=true| real=1026729 virt=197289 notrack=1375981 | touchRes=190159(eff=76048,ineff=114111) resetRes=7765(ineff=1364,eff=6401) | bc++=115475 bc--=82449 inv=18194
[DSB @ 2700000 calls] bc=0 isBypassOn=true| real=1077962 virt=203400 notrack=1418637 | touchRes=199585(eff=82160,ineff=117425) resetRes=8220(ineff=1510,eff=6710) | bc++=118935 bc--=88870 inv=19486
[DSB @ 2800000 calls] bc=12 isBypassOn=false| real=1117151 virt=211084 notrack=1471764 | touchRes=208116(eff=86654,ineff=121462) resetRes=8509(ineff=1585,eff=6924) | bc++=123047 bc--=93578 inv=20595
[DSB @ 2900000 calls] bc=12 isBypassOn=false| real=1120766 virt=223061 notrack=1556172 | touchRes=216232(eff=87674,ineff=128558) resetRes=9072(ineff=1644,eff=7428) | bc++=130202 bc--=95102 inv=20913
[DSB @ 3000000 calls] bc=12 isBypassOn=false| real=1120769 virt=235706 notrack=1643524 | touchRes=223591(eff=87675,ineff=135916) resetRes=9429(ineff=1644,eff=7785) | bc++=137560 bc--=95460 inv=20930
[DSB @ 3100000 calls] bc=12 isBypassOn=false| real=1120769 virt=248048 notrack=1731182 | touchRes=231242(eff=87675,ineff=143567) resetRes=9442(ineff=1644,eff=7798) | bc++=145211 bc--=95473 inv=20932
[DSB @ 3200000 calls] bc=0 isBypassOn=true| real=1169501 virt=254377 notrack=1776121 | touchRes=237757(eff=90316,ineff=147441) resetRes=9936(ineff=1872,eff=8064) | bc++=149313 bc--=98380 inv=21379
[DSB @ 3300000 calls] bc=12 isBypassOn=false| real=1225784 virt=259748 notrack=1814467 | touchRes=243161(eff=93100,ineff=150061) resetRes=10128(ineff=1967,eff=8161) | bc++=152028 bc--=101261 inv=24994
[DSB @ 3400000 calls] bc=12 isBypassOn=false| real=1225785 virt=272140 notrack=1902074 | touchRes=250616(eff=93100,ineff=157516) resetRes=10372(ineff=1967,eff=8405) | bc++=159483 bc--=101505 inv=24997
[DSB @ 3500000 calls] bc=12 isBypassOn=false| real=1229769 virt=284135 notrack=1986095 | touchRes=258634(eff=94216,ineff=164418) resetRes=10904(ineff=2091,eff=8813) | bc++=166509 bc--=103029 inv=25262
[DSB @ 3600000 calls] bc=12 isBypassOn=false| real=1265181 virt=292175 notrack=2042643 | touchRes=264911(eff=95783,ineff=169128) resetRes=11170(ineff=2097,eff=9073) | bc++=171225 bc--=104856 inv=26791
[DSB @ 3700000 calls] bc=12 isBypassOn=false| real=1284566 virt=302210 notrack=2113223 | touchRes=272165(eff=97287,ineff=174878) resetRes=11802(ineff=2267,eff=9535) | bc++=177145 bc--=106822 inv=28059
[DSB @ 3800000 calls] bc=0 isBypassOn=true| real=1363921 virt=304792 notrack=2131286 | touchRes=276186(eff=99594,ineff=176592) resetRes=12054(ineff=2286,eff=9768) | bc++=178878 bc--=109362 inv=28121
[DSB @ 3900000 calls] bc=0 isBypassOn=true| real=1460988 virt=305153 notrack=2133858 | touchRes=281665(eff=105010,ineff=176655) resetRes=12376(ineff=2524,eff=9852) | bc++=179179 bc--=114862 inv=28536
[DSB @ 4000000 calls] bc=12 isBypassOn=false| real=1536706 virt=308146 notrack=2155147 | touchRes=286288(eff=108284,ineff=178004) resetRes=12563(ineff=2647,eff=9916) | bc++=180651 bc--=118200 inv=30470
[DSB @ 4100000 calls] bc=12 isBypassOn=false| real=1579372 virt=315290 notrack=2205337 | touchRes=291499(eff=109291,ineff=182208) resetRes=12864(ineff=2653,eff=10211) | bc++=184861 bc--=119502 inv=31522
[DSB @ 4200000 calls] bc=0 isBypassOn=true| real=1634632 virt=320954 notrack=2244413 | touchRes=295875(eff=110169,ineff=185706) resetRes=13159(ineff=2653,eff=10506) | bc++=188359 bc--=120675 inv=31572
[DSB @ 4300000 calls] bc=0 isBypassOn=true| real=1734607 virt=320957 notrack=2244435 | touchRes=297611(eff=111904,ineff=185707) resetRes=13167(ineff=2661,eff=10506) | bc++=188368 bc--=122410 inv=31588
[DSB @ 4400000 calls] bc=12 isBypassOn=false| real=1816791 virt=323219 notrack=2259989 | touchRes=300200(eff=113488,ineff=186712) resetRes=13332(ineff=2679,eff=10653) | bc++=189391 bc--=124141 inv=34248
[DSB @ 4500000 calls] bc=0 isBypassOn=true| real=1899611 virt=325378 notrack=2275010 | touchRes=306015(eff=118171,ineff=187844) resetRes=14425(ineff=3279,eff=11146) | bc++=191123 bc--=129317 inv=34914
[DSB @ 4600000 calls] bc=0 isBypassOn=true| real=1922249 virt=334941 notrack=2342809 | touchRes=313330(eff=120445,ineff=192885) resetRes=15026(ineff=3376,eff=11650) | bc++=196261 bc--=132095 inv=36840
[DSB @ 4700000 calls] bc=12 isBypassOn=false| real=1962805 virt=342387 notrack=2394807 | touchRes=322072(eff=125048,ineff=197024) resetRes=15079(ineff=3424,eff=11655) | bc++=200448 bc--=136703 inv=37559
[DSB @ 4800000 calls] bc=12 isBypassOn=false| real=2025443 virt=347083 notrack=2427473 | touchRes=331536(eff=131850,ineff=199686) resetRes=15378(ineff=3459,eff=11919) | bc++=203145 bc--=143769 inv=39383
[DSB @ 4900000 calls] bc=12 isBypassOn=false| real=2025462 virt=359484 notrack=2515053 | touchRes=338513(eff=131852,ineff=206661) resetRes=16024(ineff=3459,eff=12565) | bc++=210120 bc--=144417 inv=39565
[DSB @ 5000000 calls] bc=12 isBypassOn=false| real=2025463 virt=371867 notrack=2602669 | touchRes=345951(eff=131852,ineff=214099) resetRes=16184(ineff=3459,eff=12725) | bc++=217558 bc--=144577 inv=39572
[DSB @ 5100000 calls] bc=12 isBypassOn=false| real=2059085 virt=380225 notrack=2660689 | touchRes=351280(eff=132413,ineff=218867) resetRes=16415(ineff=3460,eff=12955) | bc++=222327 bc--=145368 inv=41225
Exiting @ tick 28539610246000 because a thread reached the max instruction count
