warn: The `get_runtime_isa` function is deprecated. Please migrate away from using this function.
warn: The se.py script is deprecated. It will be removed in future releases of  gem5.
warn: The `get_runtime_isa` function is deprecated. Please migrate away from using this function.
Global frequency set at 1000000000000 ticks per second
src/mem/dram_interface.cc:690: warn: DRAM device capacity (8192 Mbytes) does not match the address range assigned (16384 Mbytes)
src/base/statistics.hh:279: warn: One of the stats is a legacy stat. Legacy stat is a stat that does not belong to any statistics::Group. Legacy stat is deprecated.
src/base/remote_gdb.cc:418: warn: Sockets disabled, not accepting gdb connections
src/sim/process.cc:396: warn: Checkpoints for pipes, device drivers and sockets do not work.
gem5 Simulator System.  https://www.gem5.org
gem5 is copyrighted software; use the --copyright option for details.

gem5 version 23.0.0.1
gem5 compiled Apr  6 2026 01:50:35
gem5 started Apr  6 2026 05:04:29
gem5 executing on b49ce2a326be, pid 129608
command line: /opt/gem5/build/X86/gem5.opt --outdir=/workspace/results_l3/1MB/policy0Config3/bwaves /workspace/configs/run_spec_l3.py --rp-type=DSBRP --l3-size=1MB --l3-assoc=16 --cpu-type=DerivO3CPU --cmd=./speed_bwaves_base.gem5-x86 --options=bwaves_1 --mem-size=16GB --maxinst=250000000 --caches --l2cache --l1d_size=32kB --l1i_size=32kB --l1d_assoc=8 --l1i_assoc=8 --l2_size=256kB --l2_assoc=8 --checkpoint-restore=1 --checkpoint-dir=/workspace/checkpoints/bwaves/m5out --restore-with-cpu=AtomicSimpleCPU --standard-switch=1 --warmup-insts=50000000 --input=bwaves_1.in --dsb-enable-bypass=true --dsb-enable-aging=false --dsb-bypass-counter=3 --dsb-virtual-bypass-counter=3 --dsb-random-promotion=0 --dsb-minimum-bypass-counter=12

info: Standard input is not a terminal, disabling listeners.
Replacement policy: DSBRP
L1I size: 32kB, assoc: 8
L1D size: 32kB, assoc: 8
L2 size: 256kB, assoc: 8
L3 size: 1MB, L3 assoc: 16
Switch at instruction count:1
src/sim/simulate.cc:194: info: Entering event queue @ 26022662981500.  Starting simulation...
src/sim/simulate.cc:194: info: Entering event queue @ 26022662983500.  Starting simulation...
src/sim/power_state.cc:105: warn: PowerState: Already in the requested power state, request ignored
Switched CPUS @ tick 26022662983500
switching cpus
Switch at instruction count:50000000
src/sim/simulate.cc:194: info: Entering event queue @ 26022662984000.  Starting simulation...
[DSB @ 100000 calls] bc=0 isBypassOn=true| real=94748 virt=698 notrack=4553 | touchRes=233(eff=106,ineff=127) resetRes=0(ineff=0,eff=0) | bc++=127 bc--=106 inv=0
[DSB @ 200000 calls] bc=0 isBypassOn=true| real=194748 virt=698 notrack=4553 | touchRes=233(eff=106,ineff=127) resetRes=0(ineff=0,eff=0) | bc++=127 bc--=106 inv=0
[DSB @ 300000 calls] bc=0 isBypassOn=true| real=294748 virt=698 notrack=4553 | touchRes=233(eff=106,ineff=127) resetRes=0(ineff=0,eff=0) | bc++=127 bc--=106 inv=0
[DSB @ 400000 calls] bc=0 isBypassOn=true| real=394748 virt=698 notrack=4553 | touchRes=233(eff=106,ineff=127) resetRes=0(ineff=0,eff=0) | bc++=127 bc--=106 inv=0
[DSB @ 500000 calls] bc=0 isBypassOn=true| real=494748 virt=698 notrack=4553 | touchRes=233(eff=106,ineff=127) resetRes=0(ineff=0,eff=0) | bc++=127 bc--=106 inv=0
[DSB @ 600000 calls] bc=0 isBypassOn=true| real=594748 virt=698 notrack=4553 | touchRes=233(eff=106,ineff=127) resetRes=0(ineff=0,eff=0) | bc++=127 bc--=106 inv=0
[DSB @ 700000 calls] bc=0 isBypassOn=true| real=694748 virt=698 notrack=4553 | touchRes=233(eff=106,ineff=127) resetRes=0(ineff=0,eff=0) | bc++=127 bc--=106 inv=0
[DSB @ 800000 calls] bc=0 isBypassOn=true| real=794748 virt=698 notrack=4553 | touchRes=233(eff=106,ineff=127) resetRes=0(ineff=0,eff=0) | bc++=127 bc--=106 inv=0
[DSB @ 900000 calls] bc=0 isBypassOn=true| real=894748 virt=698 notrack=4553 | touchRes=233(eff=106,ineff=127) resetRes=0(ineff=0,eff=0) | bc++=127 bc--=106 inv=0
[DSB @ 1000000 calls] bc=0 isBypassOn=true| real=994748 virt=698 notrack=4553 | touchRes=233(eff=106,ineff=127) resetRes=0(ineff=0,eff=0) | bc++=127 bc--=106 inv=0
[DSB @ 1100000 calls] bc=0 isBypassOn=true| real=1094748 virt=698 notrack=4553 | touchRes=233(eff=106,ineff=127) resetRes=0(ineff=0,eff=0) | bc++=127 bc--=106 inv=0
[DSB @ 1200000 calls] bc=0 isBypassOn=true| real=1194748 virt=698 notrack=4553 | touchRes=233(eff=106,ineff=127) resetRes=0(ineff=0,eff=0) | bc++=127 bc--=106 inv=0
[DSB @ 1300000 calls] bc=0 isBypassOn=true| real=1294748 virt=698 notrack=4553 | touchRes=233(eff=106,ineff=127) resetRes=0(ineff=0,eff=0) | bc++=127 bc--=106 inv=0
[DSB @ 1400000 calls] bc=0 isBypassOn=true| real=1394748 virt=698 notrack=4553 | touchRes=233(eff=106,ineff=127) resetRes=0(ineff=0,eff=0) | bc++=127 bc--=106 inv=0
[DSB @ 1500000 calls] bc=0 isBypassOn=true| real=1494748 virt=698 notrack=4553 | touchRes=233(eff=106,ineff=127) resetRes=0(ineff=0,eff=0) | bc++=127 bc--=106 inv=0
[DSB @ 1600000 calls] bc=0 isBypassOn=true| real=1594748 virt=698 notrack=4553 | touchRes=233(eff=106,ineff=127) resetRes=0(ineff=0,eff=0) | bc++=127 bc--=106 inv=0
src/sim/simulate.cc:194: info: Entering event queue @ 26278346199500.  Starting simulation...
Switching CPUS @ tick 26278346199500
Simulation ends instruction count:250000000
switching cpus
**** REAL SIMULATION ****
src/sim/simulate.cc:194: info: Entering event queue @ 26278346201500.  Starting simulation...
[DSB @ 1700000 calls] bc=0 isBypassOn=true| real=1694743 virt=699 notrack=4557 | touchRes=233(eff=106,ineff=127) resetRes=0(ineff=0,eff=0) | bc++=127 bc--=106 inv=0
[DSB @ 1800000 calls] bc=0 isBypassOn=true| real=1794743 virt=699 notrack=4557 | touchRes=233(eff=106,ineff=127) resetRes=0(ineff=0,eff=0) | bc++=127 bc--=106 inv=0
[DSB @ 1900000 calls] bc=0 isBypassOn=true| real=1894743 virt=699 notrack=4557 | touchRes=233(eff=106,ineff=127) resetRes=0(ineff=0,eff=0) | bc++=127 bc--=106 inv=0
[DSB @ 2000000 calls] bc=0 isBypassOn=true| real=1994743 virt=699 notrack=4557 | touchRes=233(eff=106,ineff=127) resetRes=0(ineff=0,eff=0) | bc++=127 bc--=106 inv=0
[DSB @ 2100000 calls] bc=0 isBypassOn=true| real=2094739 virt=699 notrack=4561 | touchRes=233(eff=106,ineff=127) resetRes=0(ineff=0,eff=0) | bc++=127 bc--=106 inv=0
[DSB @ 2200000 calls] bc=0 isBypassOn=true| real=2194739 virt=699 notrack=4561 | touchRes=233(eff=106,ineff=127) resetRes=0(ineff=0,eff=0) | bc++=127 bc--=106 inv=0
[DSB @ 2300000 calls] bc=0 isBypassOn=true| real=2294739 virt=699 notrack=4561 | touchRes=233(eff=106,ineff=127) resetRes=0(ineff=0,eff=0) | bc++=127 bc--=106 inv=0
[DSB @ 2400000 calls] bc=0 isBypassOn=true| real=2394739 virt=699 notrack=4561 | touchRes=233(eff=106,ineff=127) resetRes=0(ineff=0,eff=0) | bc++=127 bc--=106 inv=0
[DSB @ 2500000 calls] bc=0 isBypassOn=true| real=2494739 virt=699 notrack=4561 | touchRes=233(eff=106,ineff=127) resetRes=0(ineff=0,eff=0) | bc++=127 bc--=106 inv=0
[DSB @ 2600000 calls] bc=0 isBypassOn=true| real=2594739 virt=699 notrack=4561 | touchRes=233(eff=106,ineff=127) resetRes=0(ineff=0,eff=0) | bc++=127 bc--=106 inv=0
[DSB @ 2700000 calls] bc=0 isBypassOn=true| real=2694738 virt=699 notrack=4562 | touchRes=233(eff=106,ineff=127) resetRes=0(ineff=0,eff=0) | bc++=127 bc--=106 inv=0
[DSB @ 2800000 calls] bc=0 isBypassOn=true| real=2794738 virt=699 notrack=4562 | touchRes=233(eff=106,ineff=127) resetRes=0(ineff=0,eff=0) | bc++=127 bc--=106 inv=0
[DSB @ 2900000 calls] bc=0 isBypassOn=true| real=2894737 virt=700 notrack=4562 | touchRes=233(eff=106,ineff=127) resetRes=0(ineff=0,eff=0) | bc++=127 bc--=106 inv=0
[DSB @ 3000000 calls] bc=0 isBypassOn=true| real=2994737 virt=700 notrack=4562 | touchRes=233(eff=106,ineff=127) resetRes=0(ineff=0,eff=0) | bc++=127 bc--=106 inv=0
[DSB @ 3100000 calls] bc=0 isBypassOn=true| real=3094737 virt=700 notrack=4562 | touchRes=233(eff=106,ineff=127) resetRes=0(ineff=0,eff=0) | bc++=127 bc--=106 inv=0
[DSB @ 3200000 calls] bc=0 isBypassOn=true| real=3194737 virt=700 notrack=4562 | touchRes=233(eff=106,ineff=127) resetRes=0(ineff=0,eff=0) | bc++=127 bc--=106 inv=0
[DSB @ 3300000 calls] bc=0 isBypassOn=true| real=3294737 virt=700 notrack=4562 | touchRes=233(eff=106,ineff=127) resetRes=0(ineff=0,eff=0) | bc++=127 bc--=106 inv=0
[DSB @ 3400000 calls] bc=0 isBypassOn=true| real=3394737 virt=700 notrack=4562 | touchRes=233(eff=106,ineff=127) resetRes=0(ineff=0,eff=0) | bc++=127 bc--=106 inv=0
[DSB @ 3500000 calls] bc=0 isBypassOn=true| real=3494737 virt=700 notrack=4562 | touchRes=233(eff=106,ineff=127) resetRes=0(ineff=0,eff=0) | bc++=127 bc--=106 inv=0
[DSB @ 3600000 calls] bc=0 isBypassOn=true| real=3594737 virt=700 notrack=4562 | touchRes=233(eff=106,ineff=127) resetRes=0(ineff=0,eff=0) | bc++=127 bc--=106 inv=0
[DSB @ 3700000 calls] bc=0 isBypassOn=true| real=3694737 virt=700 notrack=4562 | touchRes=233(eff=106,ineff=127) resetRes=0(ineff=0,eff=0) | bc++=127 bc--=106 inv=0
[DSB @ 3800000 calls] bc=0 isBypassOn=true| real=3794737 virt=700 notrack=4562 | touchRes=233(eff=106,ineff=127) resetRes=0(ineff=0,eff=0) | bc++=127 bc--=106 inv=0
[DSB @ 3900000 calls] bc=0 isBypassOn=true| real=3894737 virt=700 notrack=4562 | touchRes=233(eff=106,ineff=127) resetRes=0(ineff=0,eff=0) | bc++=127 bc--=106 inv=0
[DSB @ 4000000 calls] bc=0 isBypassOn=true| real=3994737 virt=700 notrack=4562 | touchRes=233(eff=106,ineff=127) resetRes=0(ineff=0,eff=0) | bc++=127 bc--=106 inv=0
[DSB @ 4100000 calls] bc=0 isBypassOn=true| real=4094737 virt=700 notrack=4562 | touchRes=233(eff=106,ineff=127) resetRes=0(ineff=0,eff=0) | bc++=127 bc--=106 inv=0
[DSB @ 4200000 calls] bc=0 isBypassOn=true| real=4194737 virt=700 notrack=4562 | touchRes=233(eff=106,ineff=127) resetRes=0(ineff=0,eff=0) | bc++=127 bc--=106 inv=0
[DSB @ 4300000 calls] bc=0 isBypassOn=true| real=4294737 virt=700 notrack=4562 | touchRes=233(eff=106,ineff=127) resetRes=0(ineff=0,eff=0) | bc++=127 bc--=106 inv=0
[DSB @ 4400000 calls] bc=0 isBypassOn=true| real=4394737 virt=700 notrack=4562 | touchRes=233(eff=106,ineff=127) resetRes=0(ineff=0,eff=0) | bc++=127 bc--=106 inv=0
[DSB @ 4500000 calls] bc=0 isBypassOn=true| real=4494737 virt=700 notrack=4562 | touchRes=233(eff=106,ineff=127) resetRes=0(ineff=0,eff=0) | bc++=127 bc--=106 inv=0
[DSB @ 4600000 calls] bc=0 isBypassOn=true| real=4594737 virt=700 notrack=4562 | touchRes=233(eff=106,ineff=127) resetRes=0(ineff=0,eff=0) | bc++=127 bc--=106 inv=0
[DSB @ 4700000 calls] bc=0 isBypassOn=true| real=4694737 virt=700 notrack=4562 | touchRes=233(eff=106,ineff=127) resetRes=0(ineff=0,eff=0) | bc++=127 bc--=106 inv=0
[DSB @ 4800000 calls] bc=0 isBypassOn=true| real=4794737 virt=700 notrack=4562 | touchRes=233(eff=106,ineff=127) resetRes=0(ineff=0,eff=0) | bc++=127 bc--=106 inv=0
[DSB @ 4900000 calls] bc=0 isBypassOn=true| real=4894737 virt=700 notrack=4562 | touchRes=233(eff=106,ineff=127) resetRes=0(ineff=0,eff=0) | bc++=127 bc--=106 inv=0
[DSB @ 5000000 calls] bc=0 isBypassOn=true| real=4994737 virt=700 notrack=4562 | touchRes=233(eff=106,ineff=127) resetRes=0(ineff=0,eff=0) | bc++=127 bc--=106 inv=0
[DSB @ 5100000 calls] bc=0 isBypassOn=true| real=5094737 virt=700 notrack=4562 | touchRes=233(eff=106,ineff=127) resetRes=0(ineff=0,eff=0) | bc++=127 bc--=106 inv=0
[DSB @ 5200000 calls] bc=0 isBypassOn=true| real=5194737 virt=700 notrack=4562 | touchRes=233(eff=106,ineff=127) resetRes=0(ineff=0,eff=0) | bc++=127 bc--=106 inv=0
[DSB @ 5300000 calls] bc=0 isBypassOn=true| real=5294737 virt=700 notrack=4562 | touchRes=233(eff=106,ineff=127) resetRes=0(ineff=0,eff=0) | bc++=127 bc--=106 inv=0
[DSB @ 5400000 calls] bc=0 isBypassOn=true| real=5394737 virt=700 notrack=4562 | touchRes=233(eff=106,ineff=127) resetRes=0(ineff=0,eff=0) | bc++=127 bc--=106 inv=0
[DSB @ 5500000 calls] bc=0 isBypassOn=true| real=5494737 virt=700 notrack=4562 | touchRes=233(eff=106,ineff=127) resetRes=0(ineff=0,eff=0) | bc++=127 bc--=106 inv=0
[DSB @ 5600000 calls] bc=0 isBypassOn=true| real=5594737 virt=700 notrack=4562 | touchRes=233(eff=106,ineff=127) resetRes=0(ineff=0,eff=0) | bc++=127 bc--=106 inv=0
[DSB @ 5700000 calls] bc=0 isBypassOn=true| real=5694737 virt=700 notrack=4562 | touchRes=233(eff=106,ineff=127) resetRes=0(ineff=0,eff=0) | bc++=127 bc--=106 inv=0
[DSB @ 5800000 calls] bc=0 isBypassOn=true| real=5794737 virt=700 notrack=4562 | touchRes=233(eff=106,ineff=127) resetRes=0(ineff=0,eff=0) | bc++=127 bc--=106 inv=0
[DSB @ 5900000 calls] bc=0 isBypassOn=true| real=5894737 virt=700 notrack=4562 | touchRes=233(eff=106,ineff=127) resetRes=0(ineff=0,eff=0) | bc++=127 bc--=106 inv=0
[DSB @ 6000000 calls] bc=0 isBypassOn=true| real=5994737 virt=700 notrack=4562 | touchRes=233(eff=106,ineff=127) resetRes=0(ineff=0,eff=0) | bc++=127 bc--=106 inv=0
[DSB @ 6100000 calls] bc=0 isBypassOn=true| real=6094737 virt=700 notrack=4562 | touchRes=233(eff=106,ineff=127) resetRes=0(ineff=0,eff=0) | bc++=127 bc--=106 inv=0
[DSB @ 6200000 calls] bc=0 isBypassOn=true| real=6194737 virt=700 notrack=4562 | touchRes=233(eff=106,ineff=127) resetRes=0(ineff=0,eff=0) | bc++=127 bc--=106 inv=0
[DSB @ 6300000 calls] bc=0 isBypassOn=true| real=6294737 virt=700 notrack=4562 | touchRes=233(eff=106,ineff=127) resetRes=0(ineff=0,eff=0) | bc++=127 bc--=106 inv=0
[DSB @ 6400000 calls] bc=0 isBypassOn=true| real=6394737 virt=700 notrack=4562 | touchRes=233(eff=106,ineff=127) resetRes=0(ineff=0,eff=0) | bc++=127 bc--=106 inv=0
[DSB @ 6500000 calls] bc=0 isBypassOn=true| real=6494737 virt=700 notrack=4562 | touchRes=233(eff=106,ineff=127) resetRes=0(ineff=0,eff=0) | bc++=127 bc--=106 inv=0
[DSB @ 6600000 calls] bc=0 isBypassOn=true| real=6594737 virt=700 notrack=4562 | touchRes=233(eff=106,ineff=127) resetRes=0(ineff=0,eff=0) | bc++=127 bc--=106 inv=0
[DSB @ 6700000 calls] bc=0 isBypassOn=true| real=6694737 virt=700 notrack=4562 | touchRes=233(eff=106,ineff=127) resetRes=0(ineff=0,eff=0) | bc++=127 bc--=106 inv=0
[DSB @ 6800000 calls] bc=0 isBypassOn=true| real=6794737 virt=700 notrack=4562 | touchRes=233(eff=106,ineff=127) resetRes=0(ineff=0,eff=0) | bc++=127 bc--=106 inv=0
[DSB @ 6900000 calls] bc=0 isBypassOn=true| real=6894737 virt=700 notrack=4562 | touchRes=233(eff=106,ineff=127) resetRes=0(ineff=0,eff=0) | bc++=127 bc--=106 inv=0
[DSB @ 7000000 calls] bc=0 isBypassOn=true| real=6994737 virt=700 notrack=4562 | touchRes=233(eff=106,ineff=127) resetRes=0(ineff=0,eff=0) | bc++=127 bc--=106 inv=0
[DSB @ 7100000 calls] bc=0 isBypassOn=true| real=7094737 virt=700 notrack=4562 | touchRes=233(eff=106,ineff=127) resetRes=0(ineff=0,eff=0) | bc++=127 bc--=106 inv=0
[DSB @ 7200000 calls] bc=0 isBypassOn=true| real=7194737 virt=700 notrack=4562 | touchRes=233(eff=106,ineff=127) resetRes=0(ineff=0,eff=0) | bc++=127 bc--=106 inv=0
[DSB @ 7300000 calls] bc=0 isBypassOn=true| real=7294737 virt=700 notrack=4562 | touchRes=233(eff=106,ineff=127) resetRes=0(ineff=0,eff=0) | bc++=127 bc--=106 inv=0
[DSB @ 7400000 calls] bc=0 isBypassOn=true| real=7394737 virt=700 notrack=4562 | touchRes=233(eff=106,ineff=127) resetRes=0(ineff=0,eff=0) | bc++=127 bc--=106 inv=0
[DSB @ 7500000 calls] bc=0 isBypassOn=true| real=7494737 virt=700 notrack=4562 | touchRes=233(eff=106,ineff=127) resetRes=0(ineff=0,eff=0) | bc++=127 bc--=106 inv=0
[DSB @ 7600000 calls] bc=0 isBypassOn=true| real=7594737 virt=700 notrack=4562 | touchRes=233(eff=106,ineff=127) resetRes=0(ineff=0,eff=0) | bc++=127 bc--=106 inv=0
[DSB @ 7700000 calls] bc=0 isBypassOn=true| real=7694737 virt=700 notrack=4562 | touchRes=233(eff=106,ineff=127) resetRes=0(ineff=0,eff=0) | bc++=127 bc--=106 inv=0
[DSB @ 7800000 calls] bc=0 isBypassOn=true| real=7794737 virt=700 notrack=4562 | touchRes=233(eff=106,ineff=127) resetRes=0(ineff=0,eff=0) | bc++=127 bc--=106 inv=0
[DSB @ 7900000 calls] bc=0 isBypassOn=true| real=7894737 virt=700 notrack=4562 | touchRes=233(eff=106,ineff=127) resetRes=0(ineff=0,eff=0) | bc++=127 bc--=106 inv=0
[DSB @ 8000000 calls] bc=0 isBypassOn=true| real=7994737 virt=700 notrack=4562 | touchRes=233(eff=106,ineff=127) resetRes=0(ineff=0,eff=0) | bc++=127 bc--=106 inv=0
[DSB @ 8100000 calls] bc=0 isBypassOn=true| real=8094737 virt=700 notrack=4562 | touchRes=233(eff=106,ineff=127) resetRes=0(ineff=0,eff=0) | bc++=127 bc--=106 inv=0
[DSB @ 8200000 calls] bc=0 isBypassOn=true| real=8194737 virt=700 notrack=4562 | touchRes=233(eff=106,ineff=127) resetRes=0(ineff=0,eff=0) | bc++=127 bc--=106 inv=0
[DSB @ 8300000 calls] bc=0 isBypassOn=true| real=8294737 virt=700 notrack=4562 | touchRes=233(eff=106,ineff=127) resetRes=0(ineff=0,eff=0) | bc++=127 bc--=106 inv=0
[DSB @ 8400000 calls] bc=0 isBypassOn=true| real=8394737 virt=700 notrack=4562 | touchRes=233(eff=106,ineff=127) resetRes=0(ineff=0,eff=0) | bc++=127 bc--=106 inv=0
[DSB @ 8500000 calls] bc=0 isBypassOn=true| real=8494737 virt=700 notrack=4562 | touchRes=233(eff=106,ineff=127) resetRes=0(ineff=0,eff=0) | bc++=127 bc--=106 inv=0
[DSB @ 8600000 calls] bc=0 isBypassOn=true| real=8594737 virt=700 notrack=4562 | touchRes=233(eff=106,ineff=127) resetRes=0(ineff=0,eff=0) | bc++=127 bc--=106 inv=0
[DSB @ 8700000 calls] bc=0 isBypassOn=true| real=8694737 virt=700 notrack=4562 | touchRes=233(eff=106,ineff=127) resetRes=0(ineff=0,eff=0) | bc++=127 bc--=106 inv=0
[DSB @ 8800000 calls] bc=0 isBypassOn=true| real=8794737 virt=700 notrack=4562 | touchRes=233(eff=106,ineff=127) resetRes=0(ineff=0,eff=0) | bc++=127 bc--=106 inv=0
[DSB @ 8900000 calls] bc=0 isBypassOn=true| real=8894737 virt=700 notrack=4562 | touchRes=233(eff=106,ineff=127) resetRes=0(ineff=0,eff=0) | bc++=127 bc--=106 inv=0
[DSB @ 9000000 calls] bc=0 isBypassOn=true| real=8994737 virt=700 notrack=4562 | touchRes=233(eff=106,ineff=127) resetRes=0(ineff=0,eff=0) | bc++=127 bc--=106 inv=0
[DSB @ 9100000 calls] bc=0 isBypassOn=true| real=9094737 virt=700 notrack=4562 | touchRes=233(eff=106,ineff=127) resetRes=0(ineff=0,eff=0) | bc++=127 bc--=106 inv=0
[DSB @ 9200000 calls] bc=0 isBypassOn=true| real=9194737 virt=700 notrack=4562 | touchRes=233(eff=106,ineff=127) resetRes=0(ineff=0,eff=0) | bc++=127 bc--=106 inv=0
[DSB @ 9300000 calls] bc=0 isBypassOn=true| real=9294737 virt=700 notrack=4562 | touchRes=233(eff=106,ineff=127) resetRes=0(ineff=0,eff=0) | bc++=127 bc--=106 inv=0
[DSB @ 9400000 calls] bc=0 isBypassOn=true| real=9394737 virt=700 notrack=4562 | touchRes=233(eff=106,ineff=127) resetRes=0(ineff=0,eff=0) | bc++=127 bc--=106 inv=0
[DSB @ 9500000 calls] bc=0 isBypassOn=true| real=9494737 virt=700 notrack=4562 | touchRes=233(eff=106,ineff=127) resetRes=0(ineff=0,eff=0) | bc++=127 bc--=106 inv=0
[DSB @ 9600000 calls] bc=0 isBypassOn=true| real=9594737 virt=700 notrack=4562 | touchRes=233(eff=106,ineff=127) resetRes=0(ineff=0,eff=0) | bc++=127 bc--=106 inv=0
[DSB @ 9700000 calls] bc=0 isBypassOn=true| real=9694737 virt=700 notrack=4562 | touchRes=233(eff=106,ineff=127) resetRes=0(ineff=0,eff=0) | bc++=127 bc--=106 inv=0
[DSB @ 9800000 calls] bc=0 isBypassOn=true| real=9794737 virt=700 notrack=4562 | touchRes=233(eff=106,ineff=127) resetRes=0(ineff=0,eff=0) | bc++=127 bc--=106 inv=0
[DSB @ 9900000 calls] bc=0 isBypassOn=true| real=9894737 virt=700 notrack=4562 | touchRes=233(eff=106,ineff=127) resetRes=0(ineff=0,eff=0) | bc++=127 bc--=106 inv=0
[DSB @ 10000000 calls] bc=0 isBypassOn=true| real=9994737 virt=700 notrack=4562 | touchRes=233(eff=106,ineff=127) resetRes=0(ineff=0,eff=0) | bc++=127 bc--=106 inv=0
[DSB @ 10100000 calls] bc=0 isBypassOn=true| real=10094737 virt=700 notrack=4562 | touchRes=233(eff=106,ineff=127) resetRes=0(ineff=0,eff=0) | bc++=127 bc--=106 inv=0
[DSB @ 10200000 calls] bc=0 isBypassOn=true| real=10194737 virt=700 notrack=4562 | touchRes=233(eff=106,ineff=127) resetRes=0(ineff=0,eff=0) | bc++=127 bc--=106 inv=0
[DSB @ 10300000 calls] bc=0 isBypassOn=true| real=10294737 virt=700 notrack=4562 | touchRes=233(eff=106,ineff=127) resetRes=0(ineff=0,eff=0) | bc++=127 bc--=106 inv=0
[DSB @ 10400000 calls] bc=0 isBypassOn=true| real=10394737 virt=700 notrack=4562 | touchRes=233(eff=106,ineff=127) resetRes=0(ineff=0,eff=0) | bc++=127 bc--=106 inv=0
[DSB @ 10500000 calls] bc=0 isBypassOn=true| real=10494737 virt=700 notrack=4562 | touchRes=233(eff=106,ineff=127) resetRes=0(ineff=0,eff=0) | bc++=127 bc--=106 inv=0
[DSB @ 10600000 calls] bc=0 isBypassOn=true| real=10594737 virt=700 notrack=4562 | touchRes=233(eff=106,ineff=127) resetRes=0(ineff=0,eff=0) | bc++=127 bc--=106 inv=0
[DSB @ 10700000 calls] bc=0 isBypassOn=true| real=10694737 virt=700 notrack=4562 | touchRes=233(eff=106,ineff=127) resetRes=0(ineff=0,eff=0) | bc++=127 bc--=106 inv=0
[DSB @ 10800000 calls] bc=0 isBypassOn=true| real=10794737 virt=700 notrack=4562 | touchRes=233(eff=106,ineff=127) resetRes=0(ineff=0,eff=0) | bc++=127 bc--=106 inv=0
[DSB @ 10900000 calls] bc=0 isBypassOn=true| real=10894737 virt=700 notrack=4562 | touchRes=233(eff=106,ineff=127) resetRes=0(ineff=0,eff=0) | bc++=127 bc--=106 inv=0
[DSB @ 11000000 calls] bc=0 isBypassOn=true| real=10994708 virt=704 notrack=4587 | touchRes=233(eff=106,ineff=127) resetRes=0(ineff=0,eff=0) | bc++=127 bc--=106 inv=0
[DSB @ 11100000 calls] bc=0 isBypassOn=true| real=11094708 virt=704 notrack=4587 | touchRes=233(eff=106,ineff=127) resetRes=0(ineff=0,eff=0) | bc++=127 bc--=106 inv=0
[DSB @ 11200000 calls] bc=0 isBypassOn=true| real=11194708 virt=704 notrack=4587 | touchRes=233(eff=106,ineff=127) resetRes=0(ineff=0,eff=0) | bc++=127 bc--=106 inv=0
[DSB @ 11300000 calls] bc=0 isBypassOn=true| real=11294708 virt=704 notrack=4587 | touchRes=233(eff=106,ineff=127) resetRes=0(ineff=0,eff=0) | bc++=127 bc--=106 inv=0
[DSB @ 11400000 calls] bc=0 isBypassOn=true| real=11394708 virt=704 notrack=4587 | touchRes=233(eff=106,ineff=127) resetRes=0(ineff=0,eff=0) | bc++=127 bc--=106 inv=0
[DSB @ 11500000 calls] bc=0 isBypassOn=true| real=11494708 virt=704 notrack=4587 | touchRes=233(eff=106,ineff=127) resetRes=0(ineff=0,eff=0) | bc++=127 bc--=106 inv=0
[DSB @ 11600000 calls] bc=0 isBypassOn=true| real=11594708 virt=704 notrack=4587 | touchRes=233(eff=106,ineff=127) resetRes=0(ineff=0,eff=0) | bc++=127 bc--=106 inv=0
[DSB @ 11700000 calls] bc=0 isBypassOn=true| real=11694708 virt=704 notrack=4587 | touchRes=233(eff=106,ineff=127) resetRes=0(ineff=0,eff=0) | bc++=127 bc--=106 inv=0
[DSB @ 11800000 calls] bc=0 isBypassOn=true| real=11794708 virt=704 notrack=4587 | touchRes=233(eff=106,ineff=127) resetRes=0(ineff=0,eff=0) | bc++=127 bc--=106 inv=0
[DSB @ 11900000 calls] bc=0 isBypassOn=true| real=11894708 virt=704 notrack=4587 | touchRes=233(eff=106,ineff=127) resetRes=0(ineff=0,eff=0) | bc++=127 bc--=106 inv=0
[DSB @ 12000000 calls] bc=0 isBypassOn=true| real=11994708 virt=704 notrack=4587 | touchRes=233(eff=106,ineff=127) resetRes=0(ineff=0,eff=0) | bc++=127 bc--=106 inv=0
[DSB @ 12100000 calls] bc=0 isBypassOn=true| real=12094708 virt=704 notrack=4587 | touchRes=233(eff=106,ineff=127) resetRes=0(ineff=0,eff=0) | bc++=127 bc--=106 inv=0
Exiting @ tick 26661141962000 because a thread reached the max instruction count
