warn: The `get_runtime_isa` function is deprecated. Please migrate away from using this function.
warn: The se.py script is deprecated. It will be removed in future releases of  gem5.
warn: The `get_runtime_isa` function is deprecated. Please migrate away from using this function.
Global frequency set at 1000000000000 ticks per second
src/base/statistics.hh:279: warn: One of the stats is a legacy stat. Legacy stat is a stat that does not belong to any statistics::Group. Legacy stat is deprecated.
src/base/remote_gdb.cc:418: warn: Sockets disabled, not accepting gdb connections
src/sim/process.cc:396: warn: Checkpoints for pipes, device drivers and sockets do not work.
gem5 Simulator System.  https://www.gem5.org
gem5 is copyrighted software; use the --copyright option for details.

gem5 version 23.0.0.1
gem5 compiled Apr  6 2026 01:50:35
gem5 started Apr  7 2026 10:37:01
gem5 executing on b49ce2a326be, pid 86583
command line: /opt/gem5/build/X86/gem5.opt --outdir=/workspace/results_l3/4MB/policy0Config2/wrf /workspace/configs/run_spec_l3.py --rp-type=DSBRP --l3-size=4MB --l3-assoc=16 --cpu-type=DerivO3CPU --cmd=./wrf_s_base.gem5-x86 --options= --mem-size=8GB --maxinst=250000000 --caches --l2cache --l1d_size=32kB --l1i_size=32kB --l1d_assoc=8 --l1i_assoc=8 --l2_size=256kB --l2_assoc=8 --checkpoint-restore=1 --checkpoint-dir=/workspace/checkpoints/wrf/m5out --restore-with-cpu=AtomicSimpleCPU --standard-switch=1 --warmup-insts=50000000 --dsb-enable-bypass=true --dsb-enable-aging=false --dsb-bypass-counter=6 --dsb-virtual-bypass-counter=3 --dsb-random-promotion=0 --dsb-minimum-bypass-counter=12

info: Standard input is not a terminal, disabling listeners.
Replacement policy: DSBRP
L1I size: 32kB, assoc: 8
L1D size: 32kB, assoc: 8
L2 size: 256kB, assoc: 8
L3 size: 4MB, L3 assoc: 16
Switch at instruction count:1
src/sim/simulate.cc:194: info: Entering event queue @ 27778733914000.  Starting simulation...
src/sim/simulate.cc:194: info: Entering event queue @ 27778733915500.  Starting simulation...
src/sim/power_state.cc:105: warn: PowerState: Already in the requested power state, request ignored
Switched CPUS @ tick 27778733915500
switching cpus
Switch at instruction count:50000000
src/sim/simulate.cc:194: info: Entering event queue @ 27778733916000.  Starting simulation...
[DSB @ 100000 calls] bc=12 isBypassOn=false| real=51 virt=12422 notrack=87526 | touchRes=10227(eff=33,ineff=10194) resetRes=11(ineff=5,eff=6) | bc++=10199 bc--=39 inv=1121
[DSB @ 200000 calls] bc=11 isBypassOn=true| real=24185 virt=21942 notrack=153872 | touchRes=18814(eff=5826,ineff=12988) resetRes=4111(ineff=3392,eff=719) | bc++=16380 bc--=6545 inv=12070
[DSB @ 300000 calls] bc=2 isBypassOn=true| real=58247 virt=30192 notrack=211560 | touchRes=27689(eff=12537,ineff=15152) resetRes=8866(ineff=7091,eff=1775) | bc++=22243 bc--=14312 inv=24424
[DSB @ 400000 calls] bc=6 isBypassOn=true| real=111131 virt=35998 notrack=252870 | touchRes=34383(eff=17219,ineff=17164) resetRes=10797(ineff=8323,eff=2474) | bc++=25487 bc--=19693 inv=34447
[DSB @ 500000 calls] bc=12 isBypassOn=false| real=137001 virt=45212 notrack=317786 | touchRes=43616(eff=22456,ineff=21160) resetRes=14167(ineff=10841,eff=3326) | bc++=32001 bc--=25782 inv=45784
src/sim/simulate.cc:194: info: Entering event queue @ 27931984852500.  Starting simulation...
Switching CPUS @ tick 27931984852500
Simulation ends instruction count:250000000
switching cpus
**** REAL SIMULATION ****
src/sim/simulate.cc:194: info: Entering event queue @ 27931984946250.  Starting simulation...
[DSB @ 600000 calls] bc=12 isBypassOn=false| real=163733 virt=54322 notrack=381944 | touchRes=52369(eff=27710,ineff=24659) resetRes=16830(ineff=12445,eff=4385) | bc++=37104 bc--=32095 inv=55906
[DSB @ 700000 calls] bc=12 isBypassOn=false| real=197541 virt=62542 notrack=439916 | touchRes=63060(eff=33946,ineff=29114) resetRes=20345(ineff=15361,eff=4984) | bc++=44475 bc--=38930 inv=64447
[DSB @ 800000 calls] bc=0 isBypassOn=true| real=219849 virt=72208 notrack=507942 | touchRes=76412(eff=41916,ineff=34496) resetRes=23124(ineff=17215,eff=5909) | bc++=51711 bc--=47825 inv=69587
[DSB @ 900000 calls] bc=12 isBypassOn=false| real=232748 virt=83021 notrack=584230 | touchRes=85062(eff=45357,ineff=39705) resetRes=25883(ineff=19308,eff=6575) | bc++=59013 bc--=51932 inv=78236
[DSB @ 1000000 calls] bc=11 isBypassOn=true| real=262032 virt=91930 notrack=646037 | touchRes=97850(eff=53722,ineff=44128) resetRes=28242(ineff=21022,eff=7220) | bc++=65150 bc--=60942 inv=88035
[DSB @ 1100000 calls] bc=8 isBypassOn=true| real=286025 virt=101480 notrack=712494 | touchRes=107048(eff=59215,ineff=47833) resetRes=29875(ineff=22316,eff=7559) | bc++=70149 bc--=66774 inv=98059
[DSB @ 1200000 calls] bc=12 isBypassOn=true| real=320774 virt=109629 notrack=769596 | touchRes=114863(eff=65346,ineff=49517) resetRes=35199(ineff=26596,eff=8603) | bc++=76113 bc--=73949 inv=111803
[DSB @ 1300000 calls] bc=8 isBypassOn=true| real=349787 virt=118529 notrack=831683 | touchRes=125870(eff=73733,ineff=52137) resetRes=37700(ineff=28737,eff=8963) | bc++=80874 bc--=82696 inv=124930
[DSB @ 1400000 calls] bc=0 isBypassOn=true| real=358851 virt=129929 notrack=911219 | touchRes=133886(eff=75858,ineff=58028) resetRes=39141(ineff=29614,eff=9527) | bc++=87642 bc--=85385 inv=131140
[DSB @ 1500000 calls] bc=0 isBypassOn=true| real=406819 virt=136505 notrack=956675 | touchRes=142182(eff=83052,ineff=59130) resetRes=42914(ineff=32725,eff=10189) | bc++=91855 bc--=93241 inv=142783
[DSB @ 1600000 calls] bc=0 isBypassOn=true| real=485238 virt=139210 notrack=975551 | touchRes=147303(eff=87852,ineff=59451) resetRes=44995(ineff=34371,eff=10624) | bc++=93822 bc--=98476 inv=149565
[DSB @ 1700000 calls] bc=12 isBypassOn=false| real=519961 virt=147332 notrack=1032706 | touchRes=152401(eff=89969,ineff=62432) resetRes=46444(ineff=35087,eff=11357) | bc++=97519 bc--=101326 inv=160332
[DSB @ 1800000 calls] bc=11 isBypassOn=true| real=542564 virt=157107 notrack=1100328 | touchRes=161576(eff=95253,ineff=66323) resetRes=48714(ineff=36556,eff=12158) | bc++=102879 bc--=107411 inv=170798
[DSB @ 1900000 calls] bc=12 isBypassOn=false| real=569162 virt=166415 notrack=1164422 | touchRes=171826(eff=102397,ineff=69429) resetRes=52046(ineff=39294,eff=12752) | bc++=108723 bc--=115149 inv=182837
[DSB @ 2000000 calls] bc=12 isBypassOn=false| real=569172 virt=178972 notrack=1251855 | touchRes=177993(eff=102402,ineff=75591) resetRes=52542(ineff=39294,eff=13248) | bc++=114885 bc--=115650 inv=187888
Exiting @ tick 28083166917000 because a thread reached the max instruction count
