warn: The `get_runtime_isa` function is deprecated. Please migrate away from using this function.
warn: The se.py script is deprecated. It will be removed in future releases of  gem5.
warn: The `get_runtime_isa` function is deprecated. Please migrate away from using this function.
Global frequency set at 1000000000000 ticks per second
src/base/statistics.hh:279: warn: One of the stats is a legacy stat. Legacy stat is a stat that does not belong to any statistics::Group. Legacy stat is deprecated.
src/base/remote_gdb.cc:418: warn: Sockets disabled, not accepting gdb connections
src/sim/process.cc:396: warn: Checkpoints for pipes, device drivers and sockets do not work.
gem5 Simulator System.  https://www.gem5.org
gem5 is copyrighted software; use the --copyright option for details.

gem5 version 23.0.0.1
gem5 compiled Apr  6 2026 01:50:35
gem5 started Apr  6 2026 04:25:50
gem5 executing on b49ce2a326be, pid 122989
command line: /opt/gem5/build/X86/gem5.opt --outdir=/workspace/results_l3/1MB/policy0Config3/mcf /workspace/configs/run_spec_l3.py --rp-type=DSBRP --l3-size=1MB --l3-assoc=16 --cpu-type=DerivO3CPU --cmd=./mcf_s_base.gem5-x86 --options=inp.in --mem-size=8GB --maxinst=250000000 --caches --l2cache --l1d_size=32kB --l1i_size=32kB --l1d_assoc=8 --l1i_assoc=8 --l2_size=256kB --l2_assoc=8 --checkpoint-restore=1 --checkpoint-dir=/workspace/checkpoints/mcf/m5out --restore-with-cpu=AtomicSimpleCPU --standard-switch=1 --warmup-insts=50000000 --dsb-enable-bypass=true --dsb-enable-aging=false --dsb-bypass-counter=3 --dsb-virtual-bypass-counter=3 --dsb-random-promotion=0 --dsb-minimum-bypass-counter=12

info: Standard input is not a terminal, disabling listeners.
Replacement policy: DSBRP
L1I size: 32kB, assoc: 8
L1D size: 32kB, assoc: 8
L2 size: 256kB, assoc: 8
L3 size: 1MB, L3 assoc: 16
Switch at instruction count:1
src/sim/simulate.cc:194: info: Entering event queue @ 24065090964500.  Starting simulation...
src/sim/simulate.cc:194: info: Entering event queue @ 24065090965500.  Starting simulation...
src/sim/power_state.cc:105: warn: PowerState: Already in the requested power state, request ignored
Switched CPUS @ tick 24065090965500
switching cpus
Switch at instruction count:50000000
src/sim/simulate.cc:194: info: Entering event queue @ 24065090966000.  Starting simulation...
[DSB @ 100000 calls] bc=12 isBypassOn=false| real=290 virt=12406 notrack=87303 | touchRes=2271(eff=116,ineff=2155) resetRes=98(ineff=24,eff=74) | bc++=2179 bc--=190 inv=8264
[DSB @ 200000 calls] bc=12 isBypassOn=false| real=296 virt=24880 notrack=174823 | touchRes=3356(eff=119,ineff=3237) resetRes=227(ineff=24,eff=203) | bc++=3261 bc--=322 inv=18075
[DSB @ 300000 calls] bc=12 isBypassOn=false| real=303 virt=37242 notrack=262454 | touchRes=4422(eff=120,ineff=4302) resetRes=347(ineff=24,eff=323) | bc++=4326 bc--=443 inv=27885
[DSB @ 400000 calls] bc=12 isBypassOn=false| real=9289 virt=48647 notrack=342063 | touchRes=6400(eff=1093,ineff=5307) resetRes=514(ineff=81,eff=433) | bc++=5388 bc--=1526 inv=37745
[DSB @ 500000 calls] bc=12 isBypassOn=false| real=9294 virt=61132 notrack=429573 | touchRes=7222(eff=1093,ineff=6129) resetRes=577(ineff=81,eff=496) | bc++=6210 bc--=1589 inv=47944
src/sim/simulate.cc:194: info: Entering event queue @ 24231271179500.  Starting simulation...
Switching CPUS @ tick 24231271179500
Simulation ends instruction count:250000000
switching cpus
**** REAL SIMULATION ****
src/sim/simulate.cc:194: info: Entering event queue @ 24231271250750.  Starting simulation...
[DSB @ 600000 calls] bc=12 isBypassOn=false| real=9296 virt=73614 notrack=517089 | touchRes=8033(eff=1093,ineff=6940) resetRes=625(ineff=81,eff=544) | bc++=7021 bc--=1637 inv=58092
[DSB @ 700000 calls] bc=12 isBypassOn=false| real=9297 virt=86014 notrack=604688 | touchRes=8834(eff=1093,ineff=7741) resetRes=673(ineff=81,eff=592) | bc++=7822 bc--=1685 inv=68207
[DSB @ 800000 calls] bc=12 isBypassOn=false| real=9299 virt=98632 notrack=692068 | touchRes=9693(eff=1094,ineff=8599) resetRes=742(ineff=81,eff=661) | bc++=8680 bc--=1755 inv=78441
[DSB @ 900000 calls] bc=12 isBypassOn=false| real=9302 virt=111163 notrack=779534 | touchRes=10778(eff=1095,ineff=9683) resetRes=870(ineff=81,eff=789) | bc++=9764 bc--=1884 inv=88324
[DSB @ 1000000 calls] bc=12 isBypassOn=false| real=9305 virt=123585 notrack=867109 | touchRes=11926(eff=1095,ineff=10831) resetRes=1011(ineff=81,eff=930) | bc++=10912 bc--=2025 inv=98064
[DSB @ 1100000 calls] bc=12 isBypassOn=false| real=17923 virt=135156 notrack=946920 | touchRes=13864(eff=1968,ineff=11896) resetRes=1207(ineff=143,eff=1064) | bc++=12039 bc--=3032 inv=107943
[DSB @ 1200000 calls] bc=12 isBypassOn=false| real=17923 virt=147645 notrack=1034431 | touchRes=14825(eff=1968,ineff=12857) resetRes=1305(ineff=143,eff=1162) | bc++=13000 bc--=3130 inv=117944
[DSB @ 1300000 calls] bc=12 isBypassOn=false| real=17926 virt=160104 notrack=1121969 | touchRes=15680(eff=1969,ineff=13711) resetRes=1373(ineff=143,eff=1230) | bc++=13854 bc--=3199 inv=128052
[DSB @ 1400000 calls] bc=12 isBypassOn=false| real=17928 virt=172499 notrack=1209572 | touchRes=16489(eff=1969,ineff=14520) resetRes=1436(ineff=143,eff=1293) | bc++=14663 bc--=3262 inv=138126
[DSB @ 1500000 calls] bc=12 isBypassOn=false| real=17931 virt=185181 notrack=1296887 | touchRes=17257(eff=1971,ineff=15286) resetRes=1494(ineff=143,eff=1351) | bc++=15429 bc--=3322 inv=148472
[DSB @ 1600000 calls] bc=12 isBypassOn=false| real=17933 virt=197740 notrack=1384326 | touchRes=18212(eff=1971,ineff=16241) resetRes=1565(ineff=143,eff=1422) | bc++=16384 bc--=3393 inv=158564
[DSB @ 1700000 calls] bc=12 isBypassOn=false| real=17937 virt=210110 notrack=1471952 | touchRes=19349(eff=1973,ineff=17376) resetRes=1684(ineff=143,eff=1541) | bc++=17519 bc--=3514 inv=168358
[DSB @ 1800000 calls] bc=12 isBypassOn=false| real=17942 virt=222501 notrack=1559556 | touchRes=20436(eff=1974,ineff=18462) resetRes=1805(ineff=143,eff=1662) | bc++=18605 bc--=3636 inv=178184
[DSB @ 1900000 calls] bc=12 isBypassOn=false| real=17947 virt=235086 notrack=1646966 | touchRes=21578(eff=1975,ineff=19603) resetRes=1938(ineff=143,eff=1795) | bc++=19746 bc--=3770 inv=188073
[DSB @ 2000000 calls] bc=12 isBypassOn=false| real=17948 virt=247547 notrack=1734504 | touchRes=22411(eff=1975,ineff=20436) resetRes=1998(ineff=143,eff=1855) | bc++=20579 bc--=3830 inv=198203
[DSB @ 2100000 calls] bc=12 isBypassOn=false| real=17949 virt=260036 notrack=1822014 | touchRes=23263(eff=1976,ineff=21287) resetRes=2068(ineff=143,eff=1925) | bc++=21430 bc--=3901 inv=208337
[DSB @ 2200000 calls] bc=12 isBypassOn=true| real=17952 virt=272480 notrack=1909567 | touchRes=24072(eff=1978,ineff=22094) resetRes=2120(ineff=143,eff=1977) | bc++=22237 bc--=3955 inv=218532
[DSB @ 2300000 calls] bc=12 isBypassOn=false| real=17957 virt=284919 notrack=1997123 | touchRes=24897(eff=1978,ineff=22919) resetRes=2184(ineff=143,eff=2041) | bc++=23062 bc--=4019 inv=228650
[DSB @ 2400000 calls] bc=12 isBypassOn=false| real=17958 virt=297496 notrack=2084545 | touchRes=26030(eff=1978,ineff=24052) resetRes=2288(ineff=143,eff=2145) | bc++=24195 bc--=4123 inv=238544
[DSB @ 2500000 calls] bc=12 isBypassOn=false| real=17960 virt=309577 notrack=2172462 | touchRes=27180(eff=1978,ineff=25202) resetRes=2419(ineff=143,eff=2276) | bc++=25345 bc--=4254 inv=248077
[DSB @ 2600000 calls] bc=12 isBypassOn=false| real=17962 virt=322104 notrack=2259933 | touchRes=28351(eff=1979,ineff=26372) resetRes=2557(ineff=143,eff=2414) | bc++=26515 bc--=4393 inv=257853
[DSB @ 2700000 calls] bc=12 isBypassOn=false| real=17963 virt=334772 notrack=2347264 | touchRes=29312(eff=1979,ineff=27333) resetRes=2633(ineff=143,eff=2490) | bc++=27476 bc--=4469 inv=267968
[DSB @ 2800000 calls] bc=12 isBypassOn=false| real=17965 virt=347350 notrack=2434684 | touchRes=30132(eff=1979,ineff=28153) resetRes=2693(ineff=143,eff=2550) | bc++=28296 bc--=4529 inv=278214
[DSB @ 2900000 calls] bc=12 isBypassOn=false| real=17968 virt=359875 notrack=2522156 | touchRes=30951(eff=1980,ineff=28971) resetRes=2760(ineff=143,eff=2617) | bc++=29114 bc--=4597 inv=288514
[DSB @ 3000000 calls] bc=12 isBypassOn=false| real=17969 virt=372340 notrack=2609690 | touchRes=31777(eff=1980,ineff=29797) resetRes=2818(ineff=143,eff=2675) | bc++=29940 bc--=4655 inv=298655
Exiting @ tick 24456334745500 because a thread reached the max instruction count
