warn: The `get_runtime_isa` function is deprecated. Please migrate away from using this function.
warn: The se.py script is deprecated. It will be removed in future releases of  gem5.
warn: The `get_runtime_isa` function is deprecated. Please migrate away from using this function.
Global frequency set at 1000000000000 ticks per second
src/base/statistics.hh:279: warn: One of the stats is a legacy stat. Legacy stat is a stat that does not belong to any statistics::Group. Legacy stat is deprecated.
src/base/remote_gdb.cc:418: warn: Sockets disabled, not accepting gdb connections
src/sim/process.cc:396: warn: Checkpoints for pipes, device drivers and sockets do not work.
gem5 Simulator System.  https://www.gem5.org
gem5 is copyrighted software; use the --copyright option for details.

gem5 version 23.0.0.1
gem5 compiled Apr  6 2026 01:50:35
gem5 started Apr  6 2026 03:30:04
gem5 executing on b49ce2a326be, pid 112645
command line: /opt/gem5/build/X86/gem5.opt --outdir=/workspace/results_l3/1MB/policy0Config2/perlbench /workspace/configs/run_spec_l3.py --rp-type=DSBRP --l3-size=1MB --l3-assoc=16 --cpu-type=DerivO3CPU --cmd=./perlbench_s_base.gem5-x86 '--options=-I./lib checkspam.pl 2500 5 25 11 150 1 1 1 1' --mem-size=8GB --maxinst=250000000 --caches --l2cache --l1d_size=32kB --l1i_size=32kB --l1d_assoc=8 --l1i_assoc=8 --l2_size=256kB --l2_assoc=8 --checkpoint-restore=1 --checkpoint-dir=/workspace/checkpoints/perlbench/m5out --restore-with-cpu=AtomicSimpleCPU --standard-switch=1 --warmup-insts=50000000 --dsb-enable-bypass=true --dsb-enable-aging=false --dsb-bypass-counter=6 --dsb-virtual-bypass-counter=3 --dsb-random-promotion=0 --dsb-minimum-bypass-counter=12

info: Standard input is not a terminal, disabling listeners.
Replacement policy: DSBRP
L1I size: 32kB, assoc: 8
L1D size: 32kB, assoc: 8
L2 size: 256kB, assoc: 8
L3 size: 1MB, L3 assoc: 16
Switch at instruction count:1
src/sim/simulate.cc:194: info: Entering event queue @ 27945348329000.  Starting simulation...
src/sim/simulate.cc:194: info: Entering event queue @ 27945348331000.  Starting simulation...
src/sim/power_state.cc:105: warn: PowerState: Already in the requested power state, request ignored
Switched CPUS @ tick 27945348331000
switching cpus
Switch at instruction count:50000000
src/sim/simulate.cc:194: info: Entering event queue @ 27945348332000.  Starting simulation...
[DSB @ 100000 calls] bc=12 isBypassOn=true| real=27314 virt=9078 notrack=63607 | touchRes=8533(eff=6152,ineff=2381) resetRes=2514(ineff=1782,eff=732) | bc++=4163 bc--=6884 inv=9112
src/sim/simulate.cc:194: info: Entering event queue @ 28062156718000.  Starting simulation...
Switching CPUS @ tick 28062156718000
Simulation ends instruction count:250000000
switching cpus
**** REAL SIMULATION ****
src/sim/simulate.cc:194: info: Entering event queue @ 28062157008000.  Starting simulation...
[DSB @ 200000 calls] bc=12 isBypassOn=false| real=52525 virt=18473 notrack=129001 | touchRes=14284(eff=10427,ineff=3857) resetRes=4612(ineff=2968,eff=1644) | bc++=6825 bc--=12071 inv=19564
[DSB @ 300000 calls] bc=8 isBypassOn=true| real=67364 virt=28886 notrack=203749 | touchRes=19613(eff=13822,ineff=5791) resetRes=6742(ineff=4014,eff=2728) | bc++=9805 bc--=16550 inv=28891
[DSB @ 400000 calls] bc=12 isBypassOn=false| real=99512 virt=37325 notrack=263162 | touchRes=26493(eff=19265,ineff=7228) resetRes=9028(ineff=5491,eff=3537) | bc++=12719 bc--=22802 inv=39405
Exiting @ tick 28228679183000 because a thread reached the max instruction count
