warn: The `get_runtime_isa` function is deprecated. Please migrate away from using this function.
warn: The se.py script is deprecated. It will be removed in future releases of  gem5.
warn: The `get_runtime_isa` function is deprecated. Please migrate away from using this function.
Global frequency set at 1000000000000 ticks per second
src/base/statistics.hh:279: warn: One of the stats is a legacy stat. Legacy stat is a stat that does not belong to any statistics::Group. Legacy stat is deprecated.
src/base/remote_gdb.cc:418: warn: Sockets disabled, not accepting gdb connections
src/sim/process.cc:396: warn: Checkpoints for pipes, device drivers and sockets do not work.
gem5 Simulator System.  https://www.gem5.org
gem5 is copyrighted software; use the --copyright option for details.

gem5 version 23.0.0.1
gem5 compiled Apr  6 2026 01:50:35
gem5 started Apr  6 2026 06:06:31
gem5 executing on b49ce2a326be, pid 139776
command line: /opt/gem5/build/X86/gem5.opt --outdir=/workspace/results_l3/1MB/policy1Config1/perlbench /workspace/configs/run_spec_l3.py --rp-type=DSBRP --l3-size=1MB --l3-assoc=16 --cpu-type=DerivO3CPU --cmd=./perlbench_s_base.gem5-x86 '--options=-I./lib checkspam.pl 2500 5 25 11 150 1 1 1 1' --mem-size=8GB --maxinst=250000000 --caches --l2cache --l1d_size=32kB --l1i_size=32kB --l1d_assoc=8 --l1i_assoc=8 --l2_size=256kB --l2_assoc=8 --checkpoint-restore=1 --checkpoint-dir=/workspace/checkpoints/perlbench/m5out --restore-with-cpu=AtomicSimpleCPU --standard-switch=1 --warmup-insts=50000000 --dsb-enable-bypass=false --dsb-enable-aging=true --dsb-bypass-counter=6 --dsb-virtual-bypass-counter=4 --dsb-random-promotion=0 --dsb-minimum-bypass-counter=8

info: Standard input is not a terminal, disabling listeners.
Replacement policy: DSBRP
L1I size: 32kB, assoc: 8
L1D size: 32kB, assoc: 8
L2 size: 256kB, assoc: 8
L3 size: 1MB, L3 assoc: 16
Switch at instruction count:1
src/sim/simulate.cc:194: info: Entering event queue @ 27945348329000.  Starting simulation...
src/sim/simulate.cc:194: info: Entering event queue @ 27945348331000.  Starting simulation...
src/sim/power_state.cc:105: warn: PowerState: Already in the requested power state, request ignored
Switched CPUS @ tick 27945348331000
switching cpus
Switch at instruction count:50000000
src/sim/simulate.cc:194: info: Entering event queue @ 27945348332000.  Starting simulation...
src/sim/simulate.cc:194: info: Entering event queue @ 28062083563000.  Starting simulation...
Switching CPUS @ tick 28062083563000
Simulation ends instruction count:250000000
switching cpus
**** REAL SIMULATION ****
src/sim/simulate.cc:194: info: Entering event queue @ 28062083724250.  Starting simulation...
[DSB @ 100000 calls] bc=8 isBypassOn=true| real=0 virt=6240 notrack=93759 | touchRes=4848(eff=0,ineff=4848) resetRes=581(ineff=0,eff=581) | bc++=4848 bc--=581 inv=118
[DSB @ 200000 calls] bc=8 isBypassOn=false| real=0 virt=12341 notrack=187658 | touchRes=9557(eff=0,ineff=9557) resetRes=1235(ineff=0,eff=1235) | bc++=9557 bc--=1235 inv=318
[DSB @ 300000 calls] bc=8 isBypassOn=false| real=0 virt=18639 notrack=281360 | touchRes=14592(eff=0,ineff=14592) resetRes=1733(ineff=0,eff=1733) | bc++=14592 bc--=1733 inv=519
Exiting @ tick 28226958514500 because a thread reached the max instruction count
