warn: The `get_runtime_isa` function is deprecated. Please migrate away from using this function.
warn: The se.py script is deprecated. It will be removed in future releases of  gem5.
warn: The `get_runtime_isa` function is deprecated. Please migrate away from using this function.
Global frequency set at 1000000000000 ticks per second
src/base/statistics.hh:279: warn: One of the stats is a legacy stat. Legacy stat is a stat that does not belong to any statistics::Group. Legacy stat is deprecated.
src/base/remote_gdb.cc:418: warn: Sockets disabled, not accepting gdb connections
src/sim/process.cc:396: warn: Checkpoints for pipes, device drivers and sockets do not work.
gem5 Simulator System.  https://www.gem5.org
gem5 is copyrighted software; use the --copyright option for details.

gem5 version 23.0.0.1
gem5 compiled Apr  6 2026 01:50:35
gem5 started Apr  6 2026 08:20:02
gem5 executing on b49ce2a326be, pid 161811
command line: /opt/gem5/build/X86/gem5.opt --outdir=/workspace/results_l3/1MB/policy1Config3/omnetpp /workspace/configs/run_spec_l3.py --rp-type=DSBRP --l3-size=1MB --l3-assoc=16 --cpu-type=DerivO3CPU --cmd=./omnetpp_s_base.gem5-x86 '--options=-c General -r 0' --mem-size=8GB --maxinst=250000000 --caches --l2cache --l1d_size=32kB --l1i_size=32kB --l1d_assoc=8 --l1i_assoc=8 --l2_size=256kB --l2_assoc=8 --checkpoint-restore=1 --checkpoint-dir=/workspace/checkpoints/omnetpp/m5out --restore-with-cpu=AtomicSimpleCPU --standard-switch=1 --warmup-insts=50000000 --dsb-enable-bypass=true --dsb-enable-aging=true --dsb-bypass-counter=3 --dsb-virtual-bypass-counter=3 --dsb-random-promotion=4 --dsb-minimum-bypass-counter=12

info: Standard input is not a terminal, disabling listeners.
Replacement policy: DSBRP
L1I size: 32kB, assoc: 8
L1D size: 32kB, assoc: 8
L2 size: 256kB, assoc: 8
L3 size: 1MB, L3 assoc: 16
Switch at instruction count:1
src/sim/simulate.cc:194: info: Entering event queue @ 27633443439000.  Starting simulation...
src/sim/power_state.cc:105: warn: PowerState: Already in the requested power state, request ignored
Switched CPUS @ tick 27633443440000
switching cpus
Switch at instruction count:50000000
src/sim/simulate.cc:194: info: Entering event queue @ 27633443440000.  Starting simulation...
[DSB @ 100000 calls] bc=12 isBypassOn=false| real=319 virt=12397 notrack=87283 | touchRes=8167(eff=82,ineff=8085) resetRes=527(ineff=69,eff=458) | bc++=8154 bc--=540 inv=67
[DSB @ 200000 calls] bc=12 isBypassOn=false| real=322 virt=24865 notrack=174812 | touchRes=16379(eff=82,ineff=16297) resetRes=1015(ineff=69,eff=946) | bc++=16366 bc--=1028 inv=211
[DSB @ 300000 calls] bc=12 isBypassOn=false| real=322 virt=37451 notrack=262226 | touchRes=24720(eff=82,ineff=24638) resetRes=1479(ineff=69,eff=1410) | bc++=24707 bc--=1492 inv=370
[DSB @ 400000 calls] bc=12 isBypassOn=false| real=324 virt=50000 notrack=349675 | touchRes=33193(eff=82,ineff=33111) resetRes=1846(ineff=69,eff=1777) | bc++=33180 bc--=1859 inv=494
src/sim/simulate.cc:194: info: Entering event queue @ 27787102665500.  Starting simulation...
Switching CPUS @ tick 27787102665500
Simulation ends instruction count:250000000
switching cpus
**** REAL SIMULATION ****
src/sim/simulate.cc:194: info: Entering event queue @ 27787103151750.  Starting simulation...
[DSB @ 500000 calls] bc=12 isBypassOn=false| real=326 virt=62472 notrack=437201 | touchRes=41546(eff=83,ineff=41463) resetRes=2269(ineff=69,eff=2200) | bc++=41532 bc--=2283 inv=633
[DSB @ 600000 calls] bc=12 isBypassOn=false| real=327 virt=74954 notrack=524718 | touchRes=49838(eff=83,ineff=49755) resetRes=2826(ineff=69,eff=2757) | bc++=49824 bc--=2840 inv=813
[DSB @ 700000 calls] bc=12 isBypassOn=false| real=332 virt=87432 notrack=612235 | touchRes=58165(eff=83,ineff=58082) resetRes=3404(ineff=69,eff=3335) | bc++=58151 bc--=3418 inv=999
[DSB @ 800000 calls] bc=12 isBypassOn=false| real=333 virt=100091 notrack=699575 | touchRes=66297(eff=83,ineff=66214) resetRes=4042(ineff=69,eff=3973) | bc++=66283 bc--=4056 inv=1191
[DSB @ 900000 calls] bc=12 isBypassOn=false| real=336 virt=112540 notrack=787123 | touchRes=74397(eff=83,ineff=74314) resetRes=4647(ineff=69,eff=4578) | bc++=74383 bc--=4661 inv=1377
[DSB @ 1000000 calls] bc=12 isBypassOn=false| real=337 virt=125082 notrack=874580 | touchRes=82687(eff=83,ineff=82604) resetRes=5207(ineff=69,eff=5138) | bc++=82673 bc--=5221 inv=1551
[DSB @ 1100000 calls] bc=12 isBypassOn=false| real=339 virt=137456 notrack=962204 | touchRes=90929(eff=83,ineff=90846) resetRes=5699(ineff=69,eff=5630) | bc++=90915 bc--=5713 inv=1702
[DSB @ 1200000 calls] bc=12 isBypassOn=false| real=340 virt=149958 notrack=1049701 | touchRes=99206(eff=83,ineff=99123) resetRes=6229(ineff=69,eff=6160) | bc++=99192 bc--=6243 inv=1847
[DSB @ 1300000 calls] bc=12 isBypassOn=false| real=343 virt=162454 notrack=1137202 | touchRes=107458(eff=84,ineff=107374) resetRes=6764(ineff=69,eff=6695) | bc++=107443 bc--=6779 inv=2019
[DSB @ 1400000 calls] bc=12 isBypassOn=false| real=345 virt=174904 notrack=1224750 | touchRes=115747(eff=84,ineff=115663) resetRes=7269(ineff=69,eff=7200) | bc++=115732 bc--=7284 inv=2179
[DSB @ 1500000 calls] bc=12 isBypassOn=false| real=346 virt=187337 notrack=1312316 | touchRes=123929(eff=84,ineff=123845) resetRes=7729(ineff=69,eff=7660) | bc++=123914 bc--=7744 inv=2300
[DSB @ 1600000 calls] bc=12 isBypassOn=true| real=349 virt=199766 notrack=1399884 | touchRes=132086(eff=84,ineff=132002) resetRes=8267(ineff=69,eff=8198) | bc++=132071 bc--=8282 inv=2455
[DSB @ 1700000 calls] bc=12 isBypassOn=false| real=352 virt=212287 notrack=1487360 | touchRes=140352(eff=84,ineff=140268) resetRes=8789(ineff=69,eff=8720) | bc++=140337 bc--=8804 inv=2620
[DSB @ 1800000 calls] bc=12 isBypassOn=true| real=354 virt=224647 notrack=1574998 | touchRes=148580(eff=84,ineff=148496) resetRes=9254(ineff=69,eff=9185) | bc++=148565 bc--=9269 inv=2810
[DSB @ 1900000 calls] bc=12 isBypassOn=false| real=356 virt=237174 notrack=1662469 | touchRes=156859(eff=85,ineff=156774) resetRes=9700(ineff=69,eff=9631) | bc++=156843 bc--=9716 inv=2983
[DSB @ 2000000 calls] bc=12 isBypassOn=false| real=357 virt=249548 notrack=1750094 | touchRes=165101(eff=85,ineff=165016) resetRes=10142(ineff=69,eff=10073) | bc++=165085 bc--=10158 inv=3139
[DSB @ 2100000 calls] bc=12 isBypassOn=false| real=360 virt=262175 notrack=1837464 | touchRes=173388(eff=85,ineff=173303) resetRes=10665(ineff=69,eff=10596) | bc++=173372 bc--=10681 inv=3312
[DSB @ 2200000 calls] bc=12 isBypassOn=false| real=362 virt=274766 notrack=1924871 | touchRes=181797(eff=85,ineff=181712) resetRes=11147(ineff=69,eff=11078) | bc++=181781 bc--=11163 inv=3469
[DSB @ 2300000 calls] bc=12 isBypassOn=false| real=366 virt=287191 notrack=2012442 | touchRes=190110(eff=85,ineff=190025) resetRes=11685(ineff=69,eff=11616) | bc++=190094 bc--=11701 inv=3623
[DSB @ 2400000 calls] bc=12 isBypassOn=false| real=372 virt=299648 notrack=2099979 | touchRes=198364(eff=86,ineff=198278) resetRes=12127(ineff=69,eff=12058) | bc++=198347 bc--=12144 inv=3801
[DSB @ 2500000 calls] bc=12 isBypassOn=false| real=373 virt=312303 notrack=2187323 | touchRes=206692(eff=86,ineff=206606) resetRes=12699(ineff=69,eff=12630) | bc++=206675 bc--=12716 inv=3971
[DSB @ 2600000 calls] bc=12 isBypassOn=false| real=377 virt=324746 notrack=2274876 | touchRes=214851(eff=86,ineff=214765) resetRes=13225(ineff=69,eff=13156) | bc++=214834 bc--=13242 inv=4135
[DSB @ 2700000 calls] bc=12 isBypassOn=false| real=380 virt=337099 notrack=2362520 | touchRes=223060(eff=86,ineff=222974) resetRes=13726(ineff=69,eff=13657) | bc++=223043 bc--=13743 inv=4313
[DSB @ 2800000 calls] bc=12 isBypassOn=false| real=381 virt=349707 notrack=2449911 | touchRes=231407(eff=86,ineff=231321) resetRes=14324(ineff=69,eff=14255) | bc++=231390 bc--=14341 inv=4493
[DSB @ 2900000 calls] bc=12 isBypassOn=false| real=381 virt=362393 notrack=2537225 | touchRes=239710(eff=86,ineff=239624) resetRes=14912(ineff=69,eff=14843) | bc++=239693 bc--=14929 inv=4689
[DSB @ 3000000 calls] bc=12 isBypassOn=false| real=381 virt=374796 notrack=2624822 | touchRes=248055(eff=86,ineff=247969) resetRes=15450(ineff=69,eff=15381) | bc++=248038 bc--=15467 inv=4878
[DSB @ 3100000 calls] bc=12 isBypassOn=false| real=382 virt=387199 notrack=2712418 | touchRes=256331(eff=86,ineff=256245) resetRes=15958(ineff=69,eff=15889) | bc++=256314 bc--=15975 inv=5062
Exiting @ tick 28042938948000 because a thread reached the max instruction count
