warn: The `get_runtime_isa` function is deprecated. Please migrate away from using this function.
warn: The se.py script is deprecated. It will be removed in future releases of  gem5.
warn: The `get_runtime_isa` function is deprecated. Please migrate away from using this function.
Global frequency set at 1000000000000 ticks per second
src/base/statistics.hh:279: warn: One of the stats is a legacy stat. Legacy stat is a stat that does not belong to any statistics::Group. Legacy stat is deprecated.
src/base/remote_gdb.cc:418: warn: Sockets disabled, not accepting gdb connections
src/sim/process.cc:396: warn: Checkpoints for pipes, device drivers and sockets do not work.
gem5 Simulator System.  https://www.gem5.org
gem5 is copyrighted software; use the --copyright option for details.

gem5 version 23.0.0.1
gem5 compiled Apr  6 2026 01:50:35
gem5 started Apr  7 2026 09:55:00
gem5 executing on b49ce2a326be, pid 80172
command line: /opt/gem5/build/X86/gem5.opt --outdir=/workspace/results_l3/4MB/policy0Config2/omnetpp /workspace/configs/run_spec_l3.py --rp-type=DSBRP --l3-size=4MB --l3-assoc=16 --cpu-type=DerivO3CPU --cmd=./omnetpp_s_base.gem5-x86 '--options=-c General -r 0' --mem-size=8GB --maxinst=250000000 --caches --l2cache --l1d_size=32kB --l1i_size=32kB --l1d_assoc=8 --l1i_assoc=8 --l2_size=256kB --l2_assoc=8 --checkpoint-restore=1 --checkpoint-dir=/workspace/checkpoints/omnetpp/m5out --restore-with-cpu=AtomicSimpleCPU --standard-switch=1 --warmup-insts=50000000 --dsb-enable-bypass=true --dsb-enable-aging=false --dsb-bypass-counter=6 --dsb-virtual-bypass-counter=3 --dsb-random-promotion=0 --dsb-minimum-bypass-counter=12

info: Standard input is not a terminal, disabling listeners.
Replacement policy: DSBRP
L1I size: 32kB, assoc: 8
L1D size: 32kB, assoc: 8
L2 size: 256kB, assoc: 8
L3 size: 4MB, L3 assoc: 16
Switch at instruction count:1
src/sim/simulate.cc:194: info: Entering event queue @ 27633443439000.  Starting simulation...
src/sim/power_state.cc:105: warn: PowerState: Already in the requested power state, request ignored
Switched CPUS @ tick 27633443440000
switching cpus
Switch at instruction count:50000000
src/sim/simulate.cc:194: info: Entering event queue @ 27633443440000.  Starting simulation...
[DSB @ 100000 calls] bc=12 isBypassOn=false| real=36 virt=12455 notrack=87508 | touchRes=8528(eff=15,ineff=8513) resetRes=718(ineff=7,eff=711) | bc++=8520 bc--=726 inv=1949
[DSB @ 200000 calls] bc=12 isBypassOn=false| real=62 virt=24964 notrack=174973 | touchRes=12711(eff=23,ineff=12688) resetRes=2494(ineff=10,eff=2484) | bc++=12698 bc--=2507 inv=7661
[DSB @ 300000 calls] bc=12 isBypassOn=false| real=203 virt=37354 notrack=262442 | touchRes=17050(eff=75,ineff=16975) resetRes=4403(ineff=22,eff=4381) | bc++=16997 bc--=4456 inv=13161
[DSB @ 400000 calls] bc=12 isBypassOn=false| real=246 virt=49871 notrack=349882 | touchRes=21299(eff=92,ineff=21207) resetRes=6217(ineff=31,eff=6186) | bc++=21238 bc--=6278 inv=18875
[DSB @ 500000 calls] bc=12 isBypassOn=true| real=280 virt=62418 notrack=437301 | touchRes=25681(eff=104,ineff=25577) resetRes=8019(ineff=36,eff=7983) | bc++=25613 bc--=8087 inv=24453
src/sim/simulate.cc:194: info: Entering event queue @ 27783127827500.  Starting simulation...
Switching CPUS @ tick 27783127827500
Simulation ends instruction count:250000000
switching cpus
**** REAL SIMULATION ****
src/sim/simulate.cc:194: info: Entering event queue @ 27783128192250.  Starting simulation...
[DSB @ 600000 calls] bc=12 isBypassOn=false| real=319 virt=75192 notrack=524488 | touchRes=30183(eff=120,ineff=30063) resetRes=9835(ineff=39,eff=9796) | bc++=30102 bc--=9916 inv=30120
[DSB @ 700000 calls] bc=12 isBypassOn=false| real=351 virt=87796 notrack=611852 | touchRes=34795(eff=131,ineff=34664) resetRes=11609(ineff=44,eff=11565) | bc++=34708 bc--=11696 inv=35552
[DSB @ 800000 calls] bc=12 isBypassOn=true| real=366 virt=100159 notrack=699474 | touchRes=39331(eff=135,ineff=39196) resetRes=13296(ineff=45,eff=13251) | bc++=39241 bc--=13386 inv=40998
[DSB @ 900000 calls] bc=9 isBypassOn=true| real=589 virt=112502 notrack=786908 | touchRes=43850(eff=208,ineff=43642) resetRes=15009(ineff=72,eff=14937) | bc++=43714 bc--=15145 inv=46491
[DSB @ 1000000 calls] bc=12 isBypassOn=true| real=600 virt=124991 notrack=874408 | touchRes=48396(eff=212,ineff=48184) resetRes=16720(ineff=74,eff=16646) | bc++=48258 bc--=16858 inv=51965
[DSB @ 1100000 calls] bc=10 isBypassOn=true| real=643 virt=137684 notrack=961672 | touchRes=52970(eff=227,ineff=52743) resetRes=18500(ineff=79,eff=18421) | bc++=52822 bc--=18648 inv=57537
[DSB @ 1200000 calls] bc=12 isBypassOn=false| real=683 virt=150158 notrack=1049158 | touchRes=57581(eff=240,ineff=57341) resetRes=20206(ineff=85,eff=20121) | bc++=57426 bc--=20361 inv=62972
[DSB @ 1300000 calls] bc=12 isBypassOn=false| real=710 virt=162637 notrack=1136652 | touchRes=62172(eff=252,ineff=61920) resetRes=21919(ineff=87,eff=21832) | bc++=62007 bc--=22084 inv=68443
[DSB @ 1400000 calls] bc=12 isBypassOn=false| real=740 virt=175027 notrack=1224232 | touchRes=66668(eff=265,ineff=66403) resetRes=23706(ineff=88,eff=23618) | bc++=66491 bc--=23883 inv=73796
[DSB @ 1500000 calls] bc=10 isBypassOn=true| real=762 virt=187457 notrack=1311780 | touchRes=71266(eff=269,ineff=70997) resetRes=25442(ineff=95,eff=25347) | bc++=71092 bc--=25616 inv=79145
[DSB @ 1600000 calls] bc=12 isBypassOn=true| real=783 virt=199986 notrack=1399230 | touchRes=75813(eff=275,ineff=75538) resetRes=27116(ineff=96,eff=27020) | bc++=75634 bc--=27295 inv=84684
[DSB @ 1700000 calls] bc=11 isBypassOn=true| real=873 virt=212509 notrack=1486617 | touchRes=80237(eff=303,ineff=79934) resetRes=28871(ineff=106,eff=28765) | bc++=80040 bc--=29068 inv=90279
[DSB @ 1800000 calls] bc=12 isBypassOn=true| real=887 virt=224865 notrack=1574247 | touchRes=84683(eff=310,ineff=84373) resetRes=30563(ineff=106,eff=30457) | bc++=84479 bc--=30767 inv=95693
[DSB @ 1900000 calls] bc=12 isBypassOn=true| real=916 virt=237466 notrack=1661617 | touchRes=89279(eff=324,ineff=88955) resetRes=32300(ineff=110,eff=32190) | bc++=89065 bc--=32514 inv=101208
[DSB @ 2000000 calls] bc=12 isBypassOn=false| real=940 virt=250162 notrack=1748897 | touchRes=93863(eff=331,ineff=93532) resetRes=34107(ineff=111,eff=33996) | bc++=93643 bc--=34327 inv=106704
[DSB @ 2100000 calls] bc=12 isBypassOn=true| real=963 virt=262647 notrack=1836389 | touchRes=98473(eff=340,ineff=98133) resetRes=35770(ineff=113,eff=35657) | bc++=98246 bc--=35997 inv=112185
[DSB @ 2200000 calls] bc=12 isBypassOn=false| real=974 virt=275052 notrack=1923973 | touchRes=103001(eff=345,ineff=102656) resetRes=37404(ineff=113,eff=37291) | bc++=102769 bc--=37636 inv=117639
[DSB @ 2300000 calls] bc=12 isBypassOn=false| real=992 virt=287727 notrack=2011280 | touchRes=107611(eff=353,ineff=107258) resetRes=39153(ineff=114,eff=39039) | bc++=107372 bc--=39392 inv=123187
[DSB @ 2400000 calls] bc=12 isBypassOn=false| real=1012 virt=300471 notrack=2098516 | touchRes=112251(eff=357,ineff=111894) resetRes=41000(ineff=118,eff=40882) | bc++=112012 bc--=41239 inv=128686
[DSB @ 2500000 calls] bc=12 isBypassOn=false| real=1036 virt=312931 notrack=2186032 | touchRes=116816(eff=366,ineff=116450) resetRes=42762(ineff=120,eff=42642) | bc++=116570 bc--=43008 inv=134082
[DSB @ 2600000 calls] bc=12 isBypassOn=false| real=1054 virt=325473 notrack=2273472 | touchRes=121412(eff=373,ineff=121039) resetRes=44484(ineff=122,eff=44362) | bc++=121161 bc--=44735 inv=139496
[DSB @ 2700000 calls] bc=12 isBypassOn=true| real=1072 virt=337932 notrack=2360995 | touchRes=125975(eff=381,ineff=125594) resetRes=46122(ineff=127,eff=45995) | bc++=125721 bc--=46376 inv=144978
[DSB @ 2800000 calls] bc=11 isBypassOn=true| real=1089 virt=350507 notrack=2448403 | touchRes=130607(eff=388,ineff=130219) resetRes=47855(ineff=130,eff=47725) | bc++=130349 bc--=48113 inv=150459
[DSB @ 2900000 calls] bc=12 isBypassOn=false| real=1107 virt=362943 notrack=2535949 | touchRes=135124(eff=394,ineff=134730) resetRes=49526(ineff=131,eff=49395) | bc++=134861 bc--=49789 inv=155971
[DSB @ 3000000 calls] bc=11 isBypassOn=true| real=1141 virt=375493 notrack=2623365 | touchRes=139644(eff=403,ineff=139241) resetRes=51284(ineff=135,eff=51149) | bc++=139376 bc--=51552 inv=161471
[DSB @ 3100000 calls] bc=10 isBypassOn=true| real=1189 virt=387794 notrack=2711016 | touchRes=144236(eff=419,ineff=143817) resetRes=52994(ineff=143,eff=52851) | bc++=143960 bc--=53270 inv=166775
[DSB @ 3200000 calls] bc=12 isBypassOn=true| real=1204 virt=400211 notrack=2798584 | touchRes=148805(eff=422,ineff=148383) resetRes=54723(ineff=147,eff=54576) | bc++=148530 bc--=54998 inv=172152
[DSB @ 3300000 calls] bc=12 isBypassOn=false| real=1233 virt=412562 notrack=2886204 | touchRes=153371(eff=432,ineff=152939) resetRes=56423(ineff=150,eff=56273) | bc++=153089 bc--=56705 inv=177520
Exiting @ tick 28027863285000 because a thread reached the max instruction count
