warn: The `get_runtime_isa` function is deprecated. Please migrate away from using this function.
warn: The se.py script is deprecated. It will be removed in future releases of  gem5.
warn: The `get_runtime_isa` function is deprecated. Please migrate away from using this function.
Global frequency set at 1000000000000 ticks per second
src/base/statistics.hh:279: warn: One of the stats is a legacy stat. Legacy stat is a stat that does not belong to any statistics::Group. Legacy stat is deprecated.
src/base/remote_gdb.cc:418: warn: Sockets disabled, not accepting gdb connections
src/sim/process.cc:396: warn: Checkpoints for pipes, device drivers and sockets do not work.
gem5 Simulator System.  https://www.gem5.org
gem5 is copyrighted software; use the --copyright option for details.

gem5 version 23.0.0.1
gem5 compiled Apr  6 2026 01:50:35
gem5 started Apr  6 2026 03:09:07
gem5 executing on b49ce2a326be, pid 108647
command line: /opt/gem5/build/X86/gem5.opt --outdir=/workspace/results_l3/1MB/policy0Config2/gcc /workspace/configs/run_spec_l3.py --rp-type=DSBRP --l3-size=1MB --l3-assoc=16 --cpu-type=DerivO3CPU --cmd=./sgcc_base.gem5-x86 '--options=gcc-pp.c -O5 -fipa-pta -o gcc-pp.opts-O5_-fipa-pta.s' --mem-size=8GB --maxinst=250000000 --caches --l2cache --l1d_size=32kB --l1i_size=32kB --l1d_assoc=8 --l1i_assoc=8 --l2_size=256kB --l2_assoc=8 --checkpoint-restore=1 --checkpoint-dir=/workspace/checkpoints/gcc/m5out --restore-with-cpu=AtomicSimpleCPU --standard-switch=1 --warmup-insts=50000000 --dsb-enable-bypass=true --dsb-enable-aging=false --dsb-bypass-counter=6 --dsb-virtual-bypass-counter=3 --dsb-random-promotion=0 --dsb-minimum-bypass-counter=12

info: Standard input is not a terminal, disabling listeners.
Replacement policy: DSBRP
L1I size: 32kB, assoc: 8
L1D size: 32kB, assoc: 8
L2 size: 256kB, assoc: 8
L3 size: 1MB, L3 assoc: 16
Switch at instruction count:1
src/sim/simulate.cc:194: info: Entering event queue @ 27766339396500.  Starting simulation...
src/sim/simulate.cc:194: info: Entering event queue @ 27766339398500.  Starting simulation...
src/sim/power_state.cc:105: warn: PowerState: Already in the requested power state, request ignored
Switched CPUS @ tick 27766339398500
switching cpus
Switch at instruction count:50000000
src/sim/simulate.cc:194: info: Entering event queue @ 27766339399000.  Starting simulation...
[DSB @ 100000 calls] bc=12 isBypassOn=false| real=16365 virt=10355 notrack=73279 | touchRes=5353(eff=2877,ineff=2476) resetRes=1610(ineff=867,eff=743) | bc++=3343 bc--=3620 inv=8606
[DSB @ 200000 calls] bc=12 isBypassOn=false| real=42095 virt=19590 notrack=138314 | touchRes=9261(eff=6023,ineff=3238) resetRes=3259(ineff=1953,eff=1306) | bc++=5191 bc--=7329 inv=19611
src/sim/simulate.cc:194: info: Entering event queue @ 27890301528500.  Starting simulation...
Switching CPUS @ tick 27890301528500
Simulation ends instruction count:250000000
switching cpus
**** REAL SIMULATION ****
src/sim/simulate.cc:194: info: Entering event queue @ 27890301744500.  Starting simulation...
[DSB @ 300000 calls] bc=12 isBypassOn=true| real=50348 virt=31071 notrack=218580 | touchRes=12399(eff=7406,ineff=4993) resetRes=4985(ineff=2811,eff=2174) | bc++=7804 bc--=9580 inv=29538
[DSB @ 400000 calls] bc=9 isBypassOn=true| real=75591 virt=40246 notrack=284162 | touchRes=17076(eff=10705,ineff=6371) resetRes=7192(ineff=4254,eff=2938) | bc++=10625 bc--=13643 inv=39662
[DSB @ 500000 calls] bc=12 isBypassOn=true| real=87369 virt=51262 notrack=361368 | touchRes=21407(eff=13031,ineff=8376) resetRes=9655(ineff=5547,eff=4108) | bc++=13923 bc--=17139 inv=49444
[DSB @ 600000 calls] bc=0 isBypassOn=true| real=140199 virt=57182 notrack=402618 | touchRes=27434(eff=18571,ineff=8863) resetRes=11235(ineff=6807,eff=4428) | bc++=15670 bc--=22999 inv=59569
[DSB @ 700000 calls] bc=12 isBypassOn=false| real=161059 virt=66960 notrack=471980 | touchRes=32453(eff=21608,ineff=10845) resetRes=13535(ineff=8311,eff=5224) | bc++=19156 bc--=26832 inv=70293
[DSB @ 800000 calls] bc=0 isBypassOn=true| real=189221 virt=76000 notrack=534778 | touchRes=37441(eff=25606,ineff=11835) resetRes=15802(ineff=9877,eff=5925) | bc++=21712 bc--=31531 inv=81809
[DSB @ 900000 calls] bc=11 isBypassOn=true| real=239011 virt=82318 notrack=578670 | touchRes=41640(eff=29406,ineff=12234) resetRes=16965(ineff=10823,eff=6142) | bc++=23057 bc--=35548 inv=91545
[DSB @ 1000000 calls] bc=9 isBypassOn=true| real=255788 virt=92585 notrack=651626 | touchRes=45944(eff=31974,ineff=13970) resetRes=18635(ineff=11785,eff=6850) | bc++=25755 bc--=38824 inv=101810
[DSB @ 1100000 calls] bc=10 isBypassOn=true| real=277560 virt=102355 notrack=720084 | touchRes=50525(eff=35416,ineff=15109) resetRes=21030(ineff=13443,eff=7587) | bc++=28552 bc--=43003 inv=113129
[DSB @ 1200000 calls] bc=12 isBypassOn=false| real=292526 virt=112961 notrack=794512 | touchRes=54616(eff=37640,ineff=16976) resetRes=22769(ineff=14335,eff=8434) | bc++=31311 bc--=46074 inv=123417
[DSB @ 1300000 calls] bc=4 isBypassOn=true| real=294512 virt=125024 notrack=880463 | touchRes=57425(eff=38109,ineff=19316) resetRes=24323(ineff=14633,eff=9690) | bc++=33949 bc--=47799 inv=131318
[DSB @ 1400000 calls] bc=7 isBypassOn=true| real=307625 virt=135937 notrack=956437 | touchRes=61530(eff=40183,ineff=21347) resetRes=26706(ineff=15933,eff=10773) | bc++=37280 bc--=50956 inv=141160
Exiting @ tick 28092438556500 because a thread reached the max instruction count
