warn: The `get_runtime_isa` function is deprecated. Please migrate away from using this function.
warn: The se.py script is deprecated. It will be removed in future releases of  gem5.
warn: The `get_runtime_isa` function is deprecated. Please migrate away from using this function.
Global frequency set at 1000000000000 ticks per second
src/base/statistics.hh:279: warn: One of the stats is a legacy stat. Legacy stat is a stat that does not belong to any statistics::Group. Legacy stat is deprecated.
src/base/remote_gdb.cc:418: warn: Sockets disabled, not accepting gdb connections
src/sim/process.cc:396: warn: Checkpoints for pipes, device drivers and sockets do not work.
gem5 Simulator System.  https://www.gem5.org
gem5 is copyrighted software; use the --copyright option for details.

gem5 version 23.0.0.1
gem5 compiled Apr  6 2026 01:50:35
gem5 started Apr  6 2026 13:20:12
gem5 executing on b49ce2a326be, pid 215950
command line: /opt/gem5/build/X86/gem5.opt --outdir=/workspace/results_l3/2MB/policy1Config1/xalancbmk /workspace/configs/run_spec_l3.py --rp-type=DSBRP --l3-size=2MB --l3-assoc=16 --cpu-type=DerivO3CPU --cmd=./xalancbmk_s_base.gem5-x86 '--options=-v t5.xml xalanc.xsl' --mem-size=8GB --maxinst=250000000 --caches --l2cache --l1d_size=32kB --l1i_size=32kB --l1d_assoc=8 --l1i_assoc=8 --l2_size=256kB --l2_assoc=8 --checkpoint-restore=1 --checkpoint-dir=/workspace/checkpoints/xalancbmk/m5out --restore-with-cpu=AtomicSimpleCPU --standard-switch=1 --warmup-insts=50000000 --dsb-enable-bypass=false --dsb-enable-aging=true --dsb-bypass-counter=6 --dsb-virtual-bypass-counter=4 --dsb-random-promotion=0 --dsb-minimum-bypass-counter=8

info: Standard input is not a terminal, disabling listeners.
Replacement policy: DSBRP
L1I size: 32kB, assoc: 8
L1D size: 32kB, assoc: 8
L2 size: 256kB, assoc: 8
L3 size: 2MB, L3 assoc: 16
Switch at instruction count:1
src/sim/simulate.cc:194: info: Entering event queue @ 27962974663500.  Starting simulation...
src/sim/simulate.cc:194: info: Entering event queue @ 27962974665000.  Starting simulation...
src/sim/power_state.cc:105: warn: PowerState: Already in the requested power state, request ignored
Switched CPUS @ tick 27962974665000
switching cpus
Switch at instruction count:50000000
src/sim/simulate.cc:194: info: Entering event queue @ 27962974666000.  Starting simulation...
[DSB @ 100000 calls] bc=8 isBypassOn=false| real=0 virt=6236 notrack=93763 | touchRes=4664(eff=0,ineff=4664) resetRes=764(ineff=0,eff=764) | bc++=4664 bc--=764 inv=36
[DSB @ 200000 calls] bc=7 isBypassOn=true| real=0 virt=12537 notrack=187462 | touchRes=8311(eff=0,ineff=8311) resetRes=3071(ineff=0,eff=3071) | bc++=8311 bc--=3071 inv=62
[DSB @ 300000 calls] bc=8 isBypassOn=false| real=0 virt=18724 notrack=281275 | touchRes=11733(eff=0,ineff=11733) resetRes=5129(ineff=0,eff=5129) | bc++=11733 bc--=5129 inv=96
[DSB @ 400000 calls] bc=7 isBypassOn=true| real=0 virt=24930 notrack=375069 | touchRes=16028(eff=0,ineff=16028) resetRes=6660(ineff=0,eff=6660) | bc++=16028 bc--=6660 inv=111
src/sim/simulate.cc:194: info: Entering event queue @ 28119974219500.  Starting simulation...
Switching CPUS @ tick 28119974219500
Simulation ends instruction count:250000000
switching cpus
**** REAL SIMULATION ****
src/sim/simulate.cc:194: info: Entering event queue @ 28119974508000.  Starting simulation...
[DSB @ 500000 calls] bc=8 isBypassOn=true| real=0 virt=31215 notrack=468784 | touchRes=20570(eff=0,ineff=20570) resetRes=7716(ineff=0,eff=7716) | bc++=20570 bc--=7716 inv=158
[DSB @ 600000 calls] bc=8 isBypassOn=true| real=0 virt=37513 notrack=562486 | touchRes=24667(eff=0,ineff=24667) resetRes=9394(ineff=0,eff=9394) | bc++=24667 bc--=9394 inv=209
[DSB @ 700000 calls] bc=8 isBypassOn=false| real=0 virt=43878 notrack=656121 | touchRes=29603(eff=0,ineff=29603) resetRes=10096(ineff=0,eff=10096) | bc++=29603 bc--=10096 inv=269
[DSB @ 800000 calls] bc=8 isBypassOn=false| real=0 virt=50070 notrack=749929 | touchRes=33798(eff=0,ineff=33798) resetRes=11488(ineff=0,eff=11488) | bc++=33798 bc--=11488 inv=318
[DSB @ 900000 calls] bc=0 isBypassOn=true| real=0 virt=56265 notrack=843734 | touchRes=38719(eff=0,ineff=38719) resetRes=12312(ineff=0,eff=12312) | bc++=38719 bc--=12312 inv=373
[DSB @ 1000000 calls] bc=1 isBypassOn=true| real=0 virt=62589 notrack=937410 | touchRes=42134(eff=0,ineff=42134) resetRes=14688(ineff=0,eff=14688) | bc++=42134 bc--=14688 inv=385
[DSB @ 1100000 calls] bc=0 isBypassOn=true| real=0 virt=68920 notrack=1031079 | touchRes=46016(eff=0,ineff=46016) resetRes=16568(ineff=0,eff=16568) | bc++=46016 bc--=16568 inv=436
[DSB @ 1200000 calls] bc=0 isBypassOn=true| real=0 virt=75086 notrack=1124913 | touchRes=48969(eff=0,ineff=48969) resetRes=19338(ineff=0,eff=19338) | bc++=48969 bc--=19338 inv=439
[DSB @ 1300000 calls] bc=8 isBypassOn=false| real=0 virt=81375 notrack=1218624 | touchRes=53786(eff=0,ineff=53786) resetRes=20002(ineff=0,eff=20002) | bc++=53786 bc--=20002 inv=476
[DSB @ 1400000 calls] bc=8 isBypassOn=false| real=0 virt=87751 notrack=1312248 | touchRes=58621(eff=0,ineff=58621) resetRes=20947(ineff=0,eff=20947) | bc++=58621 bc--=20947 inv=515
[DSB @ 1500000 calls] bc=0 isBypassOn=true| real=0 virt=94035 notrack=1405964 | touchRes=62886(eff=0,ineff=62886) resetRes=22531(ineff=0,eff=22531) | bc++=62886 bc--=22531 inv=548
[DSB @ 1600000 calls] bc=8 isBypassOn=true| real=0 virt=100320 notrack=1499679 | touchRes=67582(eff=0,ineff=67582) resetRes=23557(ineff=0,eff=23557) | bc++=67582 bc--=23557 inv=589
[DSB @ 1700000 calls] bc=8 isBypassOn=true| real=0 virt=106570 notrack=1593429 | touchRes=71745(eff=0,ineff=71745) resetRes=25014(ineff=0,eff=25014) | bc++=71745 bc--=25014 inv=656
[DSB @ 1800000 calls] bc=8 isBypassOn=false| real=0 virt=112867 notrack=1687132 | touchRes=76566(eff=0,ineff=76566) resetRes=25783(ineff=0,eff=25783) | bc++=76566 bc--=25783 inv=723
[DSB @ 1900000 calls] bc=8 isBypassOn=false| real=0 virt=119149 notrack=1780850 | touchRes=80599(eff=0,ineff=80599) resetRes=27470(ineff=0,eff=27470) | bc++=80599 bc--=27470 inv=746
[DSB @ 2000000 calls] bc=8 isBypassOn=true| real=0 virt=125417 notrack=1874582 | touchRes=85441(eff=0,ineff=85441) resetRes=28397(ineff=0,eff=28397) | bc++=85441 bc--=28397 inv=821
[DSB @ 2100000 calls] bc=8 isBypassOn=false| real=0 virt=131618 notrack=1968381 | touchRes=89455(eff=0,ineff=89455) resetRes=29871(ineff=0,eff=29871) | bc++=89455 bc--=29871 inv=889
[DSB @ 2200000 calls] bc=8 isBypassOn=false| real=0 virt=137951 notrack=2062048 | touchRes=94242(eff=0,ineff=94242) resetRes=30752(ineff=0,eff=30752) | bc++=94242 bc--=30752 inv=962
[DSB @ 2300000 calls] bc=8 isBypassOn=false| real=0 virt=144122 notrack=2155877 | touchRes=98987(eff=0,ineff=98987) resetRes=31696(ineff=0,eff=31696) | bc++=98987 bc--=31696 inv=1004
[DSB @ 2400000 calls] bc=8 isBypassOn=false| real=0 virt=150280 notrack=2249719 | touchRes=103518(eff=0,ineff=103518) resetRes=32752(ineff=0,eff=32752) | bc++=103518 bc--=32752 inv=1073
[DSB @ 2500000 calls] bc=8 isBypassOn=false| real=0 virt=156664 notrack=2343335 | touchRes=108349(eff=0,ineff=108349) resetRes=33820(ineff=0,eff=33820) | bc++=108349 bc--=33820 inv=1147
[DSB @ 2600000 calls] bc=8 isBypassOn=true| real=0 virt=162857 notrack=2437142 | touchRes=112482(eff=0,ineff=112482) resetRes=35061(ineff=0,eff=35061) | bc++=112482 bc--=35061 inv=1210
[DSB @ 2700000 calls] bc=8 isBypassOn=false| real=0 virt=169255 notrack=2530744 | touchRes=117097(eff=0,ineff=117097) resetRes=36218(ineff=0,eff=36218) | bc++=117097 bc--=36218 inv=1268
[DSB @ 2800000 calls] bc=2 isBypassOn=true| real=0 virt=175500 notrack=2624499 | touchRes=121361(eff=0,ineff=121361) resetRes=37762(ineff=0,eff=37762) | bc++=121361 bc--=37762 inv=1310
[DSB @ 2900000 calls] bc=8 isBypassOn=false| real=0 virt=181676 notrack=2718323 | touchRes=125037(eff=0,ineff=125037) resetRes=39608(ineff=0,eff=39608) | bc++=125037 bc--=39608 inv=1355
[DSB @ 3000000 calls] bc=6 isBypassOn=true| real=0 virt=187851 notrack=2812148 | touchRes=129951(eff=0,ineff=129951) resetRes=40257(ineff=0,eff=40257) | bc++=129951 bc--=40257 inv=1404
[DSB @ 3100000 calls] bc=8 isBypassOn=true| real=0 virt=194112 notrack=2905887 | touchRes=134244(eff=0,ineff=134244) resetRes=41707(ineff=0,eff=41707) | bc++=134244 bc--=41707 inv=1437
Exiting @ tick 28446091915000 because a thread reached the max instruction count
