warn: The `get_runtime_isa` function is deprecated. Please migrate away from using this function.
warn: The se.py script is deprecated. It will be removed in future releases of  gem5.
warn: The `get_runtime_isa` function is deprecated. Please migrate away from using this function.
Global frequency set at 1000000000000 ticks per second
src/mem/dram_interface.cc:690: warn: DRAM device capacity (8192 Mbytes) does not match the address range assigned (16384 Mbytes)
src/base/statistics.hh:279: warn: One of the stats is a legacy stat. Legacy stat is a stat that does not belong to any statistics::Group. Legacy stat is deprecated.
src/base/remote_gdb.cc:418: warn: Sockets disabled, not accepting gdb connections
src/sim/process.cc:396: warn: Checkpoints for pipes, device drivers and sockets do not work.
gem5 Simulator System.  https://www.gem5.org
gem5 is copyrighted software; use the --copyright option for details.

gem5 version 23.0.0.1
gem5 compiled Apr  6 2026 01:50:35
gem5 started Apr  6 2026 07:42:01
gem5 executing on b49ce2a326be, pid 155512
command line: /opt/gem5/build/X86/gem5.opt --outdir=/workspace/results_l3/1MB/policy1Config2/bwaves /workspace/configs/run_spec_l3.py --rp-type=DSBRP --l3-size=1MB --l3-assoc=16 --cpu-type=DerivO3CPU --cmd=./speed_bwaves_base.gem5-x86 --options=bwaves_1 --mem-size=16GB --maxinst=250000000 --caches --l2cache --l1d_size=32kB --l1i_size=32kB --l1d_assoc=8 --l1i_assoc=8 --l2_size=256kB --l2_assoc=8 --checkpoint-restore=1 --checkpoint-dir=/workspace/checkpoints/bwaves/m5out --restore-with-cpu=AtomicSimpleCPU --standard-switch=1 --warmup-insts=50000000 --input=bwaves_1.in --dsb-enable-bypass=true --dsb-enable-aging=true --dsb-bypass-counter=6 --dsb-virtual-bypass-counter=3 --dsb-random-promotion=0 --dsb-minimum-bypass-counter=12

info: Standard input is not a terminal, disabling listeners.
Replacement policy: DSBRP
L1I size: 32kB, assoc: 8
L1D size: 32kB, assoc: 8
L2 size: 256kB, assoc: 8
L3 size: 1MB, L3 assoc: 16
Switch at instruction count:1
src/sim/simulate.cc:194: info: Entering event queue @ 26022662981500.  Starting simulation...
src/sim/simulate.cc:194: info: Entering event queue @ 26022662983500.  Starting simulation...
src/sim/power_state.cc:105: warn: PowerState: Already in the requested power state, request ignored
Switched CPUS @ tick 26022662983500
switching cpus
Switch at instruction count:50000000
src/sim/simulate.cc:194: info: Entering event queue @ 26022662984000.  Starting simulation...
[DSB @ 100000 calls] bc=12 isBypassOn=false| real=29 virt=12451 notrack=87519 | touchRes=7138(eff=13,ineff=7125) resetRes=0(ineff=0,eff=0) | bc++=7125 bc--=13 inv=0
[DSB @ 200000 calls] bc=12 isBypassOn=false| real=29 virt=24909 notrack=175061 | touchRes=14620(eff=13,ineff=14607) resetRes=0(ineff=0,eff=0) | bc++=14607 bc--=13 inv=0
[DSB @ 300000 calls] bc=12 isBypassOn=false| real=29 virt=37359 notrack=262611 | touchRes=22075(eff=13,ineff=22062) resetRes=0(ineff=0,eff=0) | bc++=22062 bc--=13 inv=0
[DSB @ 400000 calls] bc=12 isBypassOn=false| real=29 virt=49868 notrack=350102 | touchRes=29572(eff=13,ineff=29559) resetRes=0(ineff=0,eff=0) | bc++=29559 bc--=13 inv=0
[DSB @ 500000 calls] bc=12 isBypassOn=false| real=29 virt=62323 notrack=437647 | touchRes=37132(eff=13,ineff=37119) resetRes=0(ineff=0,eff=0) | bc++=37119 bc--=13 inv=0
[DSB @ 600000 calls] bc=12 isBypassOn=false| real=29 virt=74877 notrack=525093 | touchRes=44634(eff=13,ineff=44621) resetRes=0(ineff=0,eff=0) | bc++=44621 bc--=13 inv=0
[DSB @ 700000 calls] bc=12 isBypassOn=false| real=29 virt=87489 notrack=612481 | touchRes=52110(eff=13,ineff=52097) resetRes=0(ineff=0,eff=0) | bc++=52097 bc--=13 inv=0
[DSB @ 800000 calls] bc=12 isBypassOn=false| real=29 virt=100150 notrack=699820 | touchRes=59686(eff=13,ineff=59673) resetRes=0(ineff=0,eff=0) | bc++=59673 bc--=13 inv=0
[DSB @ 900000 calls] bc=12 isBypassOn=false| real=29 virt=112645 notrack=787325 | touchRes=67165(eff=13,ineff=67152) resetRes=0(ineff=0,eff=0) | bc++=67152 bc--=13 inv=0
[DSB @ 1000000 calls] bc=12 isBypassOn=false| real=29 virt=125064 notrack=874906 | touchRes=74563(eff=13,ineff=74550) resetRes=0(ineff=0,eff=0) | bc++=74550 bc--=13 inv=0
[DSB @ 1100000 calls] bc=12 isBypassOn=false| real=29 virt=137501 notrack=962469 | touchRes=81999(eff=13,ineff=81986) resetRes=0(ineff=0,eff=0) | bc++=81986 bc--=13 inv=0
[DSB @ 1200000 calls] bc=12 isBypassOn=false| real=29 virt=150011 notrack=1049959 | touchRes=89431(eff=13,ineff=89418) resetRes=0(ineff=0,eff=0) | bc++=89418 bc--=13 inv=0
[DSB @ 1300000 calls] bc=12 isBypassOn=false| real=29 virt=162413 notrack=1137557 | touchRes=96895(eff=13,ineff=96882) resetRes=0(ineff=0,eff=0) | bc++=96882 bc--=13 inv=0
[DSB @ 1400000 calls] bc=12 isBypassOn=false| real=29 virt=174825 notrack=1225145 | touchRes=104376(eff=13,ineff=104363) resetRes=0(ineff=0,eff=0) | bc++=104363 bc--=13 inv=0
[DSB @ 1500000 calls] bc=12 isBypassOn=false| real=29 virt=187360 notrack=1312610 | touchRes=111788(eff=13,ineff=111775) resetRes=0(ineff=0,eff=0) | bc++=111775 bc--=13 inv=0
[DSB @ 1600000 calls] bc=12 isBypassOn=false| real=29 virt=199973 notrack=1399997 | touchRes=119338(eff=13,ineff=119325) resetRes=0(ineff=0,eff=0) | bc++=119325 bc--=13 inv=0
src/sim/simulate.cc:194: info: Entering event queue @ 26278335725500.  Starting simulation...
Switching CPUS @ tick 26278335725500
Simulation ends instruction count:250000000
switching cpus
**** REAL SIMULATION ****
src/sim/simulate.cc:194: info: Entering event queue @ 26278335727500.  Starting simulation...
[DSB @ 1700000 calls] bc=12 isBypassOn=false| real=29 virt=212425 notrack=1487545 | touchRes=126798(eff=13,ineff=126785) resetRes=0(ineff=0,eff=0) | bc++=126785 bc--=13 inv=0
[DSB @ 1800000 calls] bc=12 isBypassOn=false| real=29 virt=225254 notrack=1574716 | touchRes=134296(eff=13,ineff=134283) resetRes=0(ineff=0,eff=0) | bc++=134283 bc--=13 inv=0
[DSB @ 1900000 calls] bc=12 isBypassOn=false| real=29 virt=237877 notrack=1662093 | touchRes=141827(eff=13,ineff=141814) resetRes=0(ineff=0,eff=0) | bc++=141814 bc--=13 inv=0
[DSB @ 2000000 calls] bc=12 isBypassOn=false| real=29 virt=250153 notrack=1749817 | touchRes=149277(eff=13,ineff=149264) resetRes=0(ineff=0,eff=0) | bc++=149264 bc--=13 inv=0
[DSB @ 2100000 calls] bc=12 isBypassOn=false| real=29 virt=262662 notrack=1837308 | touchRes=156718(eff=13,ineff=156705) resetRes=0(ineff=0,eff=0) | bc++=156705 bc--=13 inv=0
[DSB @ 2200000 calls] bc=12 isBypassOn=false| real=29 virt=275261 notrack=1924709 | touchRes=164078(eff=13,ineff=164065) resetRes=0(ineff=0,eff=0) | bc++=164065 bc--=13 inv=0
[DSB @ 2300000 calls] bc=12 isBypassOn=false| real=29 virt=287676 notrack=2012294 | touchRes=171405(eff=13,ineff=171392) resetRes=0(ineff=0,eff=0) | bc++=171392 bc--=13 inv=0
[DSB @ 2400000 calls] bc=12 isBypassOn=false| real=29 virt=299873 notrack=2100097 | touchRes=178696(eff=13,ineff=178683) resetRes=0(ineff=0,eff=0) | bc++=178683 bc--=13 inv=0
[DSB @ 2500000 calls] bc=12 isBypassOn=false| real=29 virt=312473 notrack=2187497 | touchRes=186055(eff=13,ineff=186042) resetRes=0(ineff=0,eff=0) | bc++=186042 bc--=13 inv=0
[DSB @ 2600000 calls] bc=12 isBypassOn=false| real=29 virt=325180 notrack=2274790 | touchRes=193407(eff=13,ineff=193394) resetRes=0(ineff=0,eff=0) | bc++=193394 bc--=13 inv=0
[DSB @ 2700000 calls] bc=12 isBypassOn=false| real=29 virt=337587 notrack=2362383 | touchRes=200766(eff=13,ineff=200753) resetRes=0(ineff=0,eff=0) | bc++=200753 bc--=13 inv=0
[DSB @ 2800000 calls] bc=12 isBypassOn=false| real=29 virt=349928 notrack=2450042 | touchRes=208075(eff=13,ineff=208062) resetRes=0(ineff=0,eff=0) | bc++=208062 bc--=13 inv=0
[DSB @ 2900000 calls] bc=12 isBypassOn=false| real=29 virt=362210 notrack=2537760 | touchRes=215310(eff=13,ineff=215297) resetRes=0(ineff=0,eff=0) | bc++=215297 bc--=13 inv=0
[DSB @ 3000000 calls] bc=12 isBypassOn=false| real=29 virt=374766 notrack=2625204 | touchRes=222588(eff=13,ineff=222575) resetRes=0(ineff=0,eff=0) | bc++=222575 bc--=13 inv=0
[DSB @ 3100000 calls] bc=12 isBypassOn=false| real=29 virt=387485 notrack=2712485 | touchRes=229947(eff=13,ineff=229934) resetRes=0(ineff=0,eff=0) | bc++=229934 bc--=13 inv=0
[DSB @ 3200000 calls] bc=12 isBypassOn=false| real=29 virt=400014 notrack=2799956 | touchRes=237217(eff=13,ineff=237204) resetRes=0(ineff=0,eff=0) | bc++=237204 bc--=13 inv=0
[DSB @ 3300000 calls] bc=12 isBypassOn=false| real=29 virt=412525 notrack=2887445 | touchRes=244479(eff=13,ineff=244466) resetRes=0(ineff=0,eff=0) | bc++=244466 bc--=13 inv=0
[DSB @ 3400000 calls] bc=12 isBypassOn=false| real=29 virt=425025 notrack=2974945 | touchRes=251824(eff=13,ineff=251811) resetRes=0(ineff=0,eff=0) | bc++=251811 bc--=13 inv=0
[DSB @ 3500000 calls] bc=12 isBypassOn=false| real=29 virt=437650 notrack=3062320 | touchRes=259171(eff=13,ineff=259158) resetRes=0(ineff=0,eff=0) | bc++=259158 bc--=13 inv=0
[DSB @ 3600000 calls] bc=12 isBypassOn=false| real=29 virt=450294 notrack=3149676 | touchRes=266549(eff=13,ineff=266536) resetRes=0(ineff=0,eff=0) | bc++=266536 bc--=13 inv=0
[DSB @ 3700000 calls] bc=12 isBypassOn=false| real=29 virt=462921 notrack=3237049 | touchRes=273949(eff=13,ineff=273936) resetRes=0(ineff=0,eff=0) | bc++=273936 bc--=13 inv=0
[DSB @ 3800000 calls] bc=12 isBypassOn=false| real=29 virt=475401 notrack=3324569 | touchRes=281361(eff=13,ineff=281348) resetRes=0(ineff=0,eff=0) | bc++=281348 bc--=13 inv=0
[DSB @ 3900000 calls] bc=12 isBypassOn=false| real=29 virt=487867 notrack=3412103 | touchRes=288609(eff=13,ineff=288596) resetRes=0(ineff=0,eff=0) | bc++=288596 bc--=13 inv=0
[DSB @ 4000000 calls] bc=12 isBypassOn=false| real=29 virt=500339 notrack=3499631 | touchRes=295916(eff=13,ineff=295903) resetRes=0(ineff=0,eff=0) | bc++=295903 bc--=13 inv=0
[DSB @ 4100000 calls] bc=12 isBypassOn=false| real=29 virt=512977 notrack=3586993 | touchRes=303334(eff=13,ineff=303321) resetRes=0(ineff=0,eff=0) | bc++=303321 bc--=13 inv=0
[DSB @ 4200000 calls] bc=12 isBypassOn=false| real=29 virt=525394 notrack=3674576 | touchRes=310524(eff=13,ineff=310511) resetRes=0(ineff=0,eff=0) | bc++=310511 bc--=13 inv=0
[DSB @ 4300000 calls] bc=12 isBypassOn=false| real=29 virt=537943 notrack=3762027 | touchRes=317830(eff=13,ineff=317817) resetRes=0(ineff=0,eff=0) | bc++=317817 bc--=13 inv=0
[DSB @ 4400000 calls] bc=12 isBypassOn=false| real=29 virt=550675 notrack=3849295 | touchRes=325293(eff=13,ineff=325280) resetRes=0(ineff=0,eff=0) | bc++=325280 bc--=13 inv=0
[DSB @ 4500000 calls] bc=12 isBypassOn=false| real=29 virt=563168 notrack=3936802 | touchRes=332606(eff=13,ineff=332593) resetRes=0(ineff=0,eff=0) | bc++=332593 bc--=13 inv=0
[DSB @ 4600000 calls] bc=12 isBypassOn=false| real=29 virt=575720 notrack=4024250 | touchRes=339899(eff=13,ineff=339886) resetRes=0(ineff=0,eff=0) | bc++=339886 bc--=13 inv=0
[DSB @ 4700000 calls] bc=12 isBypassOn=false| real=29 virt=588274 notrack=4111696 | touchRes=347211(eff=13,ineff=347198) resetRes=0(ineff=0,eff=0) | bc++=347198 bc--=13 inv=0
[DSB @ 4800000 calls] bc=12 isBypassOn=false| real=29 virt=600774 notrack=4199196 | touchRes=354568(eff=13,ineff=354555) resetRes=0(ineff=0,eff=0) | bc++=354555 bc--=13 inv=0
[DSB @ 4900000 calls] bc=12 isBypassOn=false| real=29 virt=613331 notrack=4286639 | touchRes=361837(eff=13,ineff=361824) resetRes=0(ineff=0,eff=0) | bc++=361824 bc--=13 inv=0
[DSB @ 5000000 calls] bc=12 isBypassOn=false| real=29 virt=625793 notrack=4374177 | touchRes=369187(eff=13,ineff=369174) resetRes=0(ineff=0,eff=0) | bc++=369174 bc--=13 inv=0
[DSB @ 5100000 calls] bc=12 isBypassOn=false| real=29 virt=638285 notrack=4461685 | touchRes=376557(eff=13,ineff=376544) resetRes=0(ineff=0,eff=0) | bc++=376544 bc--=13 inv=0
[DSB @ 5200000 calls] bc=12 isBypassOn=false| real=29 virt=650840 notrack=4549130 | touchRes=383866(eff=13,ineff=383853) resetRes=0(ineff=0,eff=0) | bc++=383853 bc--=13 inv=0
[DSB @ 5300000 calls] bc=12 isBypassOn=false| real=29 virt=663225 notrack=4636745 | touchRes=391183(eff=13,ineff=391170) resetRes=0(ineff=0,eff=0) | bc++=391170 bc--=13 inv=0
[DSB @ 5400000 calls] bc=12 isBypassOn=false| real=29 virt=675489 notrack=4724481 | touchRes=398519(eff=13,ineff=398506) resetRes=0(ineff=0,eff=0) | bc++=398506 bc--=13 inv=0
[DSB @ 5500000 calls] bc=12 isBypassOn=false| real=29 virt=688036 notrack=4811934 | touchRes=405882(eff=13,ineff=405869) resetRes=0(ineff=0,eff=0) | bc++=405869 bc--=13 inv=0
[DSB @ 5600000 calls] bc=12 isBypassOn=false| real=29 virt=700471 notrack=4899499 | touchRes=413169(eff=13,ineff=413156) resetRes=0(ineff=0,eff=0) | bc++=413156 bc--=13 inv=0
[DSB @ 5700000 calls] bc=12 isBypassOn=false| real=29 virt=712977 notrack=4986993 | touchRes=420552(eff=13,ineff=420539) resetRes=0(ineff=0,eff=0) | bc++=420539 bc--=13 inv=0
[DSB @ 5800000 calls] bc=12 isBypassOn=false| real=29 virt=725713 notrack=5074257 | touchRes=427920(eff=13,ineff=427907) resetRes=0(ineff=0,eff=0) | bc++=427907 bc--=13 inv=0
[DSB @ 5900000 calls] bc=12 isBypassOn=false| real=29 virt=738247 notrack=5161723 | touchRes=435289(eff=13,ineff=435276) resetRes=0(ineff=0,eff=0) | bc++=435276 bc--=13 inv=0
[DSB @ 6000000 calls] bc=12 isBypassOn=false| real=29 virt=750650 notrack=5249320 | touchRes=442679(eff=13,ineff=442666) resetRes=0(ineff=0,eff=0) | bc++=442666 bc--=13 inv=0
[DSB @ 6100000 calls] bc=12 isBypassOn=false| real=29 virt=763195 notrack=5336775 | touchRes=449982(eff=13,ineff=449969) resetRes=0(ineff=0,eff=0) | bc++=449969 bc--=13 inv=0
[DSB @ 6200000 calls] bc=12 isBypassOn=false| real=29 virt=775884 notrack=5424086 | touchRes=457467(eff=13,ineff=457454) resetRes=0(ineff=0,eff=0) | bc++=457454 bc--=13 inv=0
[DSB @ 6300000 calls] bc=12 isBypassOn=false| real=29 virt=788381 notrack=5511589 | touchRes=464812(eff=13,ineff=464799) resetRes=0(ineff=0,eff=0) | bc++=464799 bc--=13 inv=0
[DSB @ 6400000 calls] bc=12 isBypassOn=false| real=29 virt=800802 notrack=5599168 | touchRes=472175(eff=13,ineff=472162) resetRes=0(ineff=0,eff=0) | bc++=472162 bc--=13 inv=0
[DSB @ 6500000 calls] bc=12 isBypassOn=false| real=29 virt=813385 notrack=5686585 | touchRes=479514(eff=13,ineff=479501) resetRes=0(ineff=0,eff=0) | bc++=479501 bc--=13 inv=0
[DSB @ 6600000 calls] bc=12 isBypassOn=false| real=29 virt=825825 notrack=5774145 | touchRes=486811(eff=13,ineff=486798) resetRes=0(ineff=0,eff=0) | bc++=486798 bc--=13 inv=0
[DSB @ 6700000 calls] bc=12 isBypassOn=false| real=29 virt=838288 notrack=5861682 | touchRes=494108(eff=13,ineff=494095) resetRes=0(ineff=0,eff=0) | bc++=494095 bc--=13 inv=0
[DSB @ 6800000 calls] bc=12 isBypassOn=false| real=29 virt=850786 notrack=5949184 | touchRes=501465(eff=13,ineff=501452) resetRes=0(ineff=0,eff=0) | bc++=501452 bc--=13 inv=0
[DSB @ 6900000 calls] bc=12 isBypassOn=false| real=29 virt=863354 notrack=6036616 | touchRes=508764(eff=13,ineff=508751) resetRes=0(ineff=0,eff=0) | bc++=508751 bc--=13 inv=0
[DSB @ 7000000 calls] bc=12 isBypassOn=false| real=29 virt=876008 notrack=6123962 | touchRes=516126(eff=13,ineff=516113) resetRes=0(ineff=0,eff=0) | bc++=516113 bc--=13 inv=0
[DSB @ 7100000 calls] bc=12 isBypassOn=false| real=29 virt=888795 notrack=6211175 | touchRes=523570(eff=13,ineff=523557) resetRes=0(ineff=0,eff=0) | bc++=523557 bc--=13 inv=0
[DSB @ 7200000 calls] bc=12 isBypassOn=false| real=29 virt=901104 notrack=6298866 | touchRes=530789(eff=13,ineff=530776) resetRes=0(ineff=0,eff=0) | bc++=530776 bc--=13 inv=0
[DSB @ 7300000 calls] bc=12 isBypassOn=false| real=29 virt=913613 notrack=6386357 | touchRes=538134(eff=13,ineff=538121) resetRes=0(ineff=0,eff=0) | bc++=538121 bc--=13 inv=0
[DSB @ 7400000 calls] bc=12 isBypassOn=false| real=29 virt=926167 notrack=6473803 | touchRes=545476(eff=13,ineff=545463) resetRes=0(ineff=0,eff=0) | bc++=545463 bc--=13 inv=0
[DSB @ 7500000 calls] bc=12 isBypassOn=false| real=29 virt=938619 notrack=6561351 | touchRes=552758(eff=13,ineff=552745) resetRes=0(ineff=0,eff=0) | bc++=552745 bc--=13 inv=0
[DSB @ 7600000 calls] bc=12 isBypassOn=false| real=29 virt=951175 notrack=6648795 | touchRes=560035(eff=13,ineff=560022) resetRes=0(ineff=0,eff=0) | bc++=560022 bc--=13 inv=0
[DSB @ 7700000 calls] bc=12 isBypassOn=false| real=29 virt=963537 notrack=6736433 | touchRes=567337(eff=13,ineff=567324) resetRes=0(ineff=0,eff=0) | bc++=567324 bc--=13 inv=0
[DSB @ 7800000 calls] bc=12 isBypassOn=false| real=29 virt=975963 notrack=6824007 | touchRes=574656(eff=13,ineff=574643) resetRes=0(ineff=0,eff=0) | bc++=574643 bc--=13 inv=0
[DSB @ 7900000 calls] bc=12 isBypassOn=false| real=29 virt=988572 notrack=6911398 | touchRes=582000(eff=13,ineff=581987) resetRes=0(ineff=0,eff=0) | bc++=581987 bc--=13 inv=0
[DSB @ 8000000 calls] bc=12 isBypassOn=false| real=29 virt=1000957 notrack=6999013 | touchRes=589338(eff=13,ineff=589325) resetRes=0(ineff=0,eff=0) | bc++=589325 bc--=13 inv=0
[DSB @ 8100000 calls] bc=12 isBypassOn=false| real=29 virt=1013456 notrack=7086514 | touchRes=596640(eff=13,ineff=596627) resetRes=0(ineff=0,eff=0) | bc++=596627 bc--=13 inv=0
[DSB @ 8200000 calls] bc=12 isBypassOn=false| real=29 virt=1025858 notrack=7174112 | touchRes=603934(eff=13,ineff=603921) resetRes=0(ineff=0,eff=0) | bc++=603921 bc--=13 inv=0
[DSB @ 8300000 calls] bc=12 isBypassOn=false| real=29 virt=1038559 notrack=7261411 | touchRes=611244(eff=13,ineff=611231) resetRes=0(ineff=0,eff=0) | bc++=611231 bc--=13 inv=0
[DSB @ 8400000 calls] bc=12 isBypassOn=false| real=29 virt=1051000 notrack=7348970 | touchRes=618571(eff=13,ineff=618558) resetRes=0(ineff=0,eff=0) | bc++=618558 bc--=13 inv=0
[DSB @ 8500000 calls] bc=12 isBypassOn=false| real=29 virt=1063605 notrack=7436365 | touchRes=625913(eff=13,ineff=625900) resetRes=0(ineff=0,eff=0) | bc++=625900 bc--=13 inv=0
[DSB @ 8600000 calls] bc=12 isBypassOn=false| real=29 virt=1076169 notrack=7523801 | touchRes=633195(eff=13,ineff=633182) resetRes=0(ineff=0,eff=0) | bc++=633182 bc--=13 inv=0
[DSB @ 8700000 calls] bc=12 isBypassOn=false| real=29 virt=1088727 notrack=7611243 | touchRes=640540(eff=13,ineff=640527) resetRes=0(ineff=0,eff=0) | bc++=640527 bc--=13 inv=0
[DSB @ 8800000 calls] bc=12 isBypassOn=false| real=29 virt=1101050 notrack=7698920 | touchRes=648015(eff=13,ineff=648002) resetRes=0(ineff=0,eff=0) | bc++=648002 bc--=13 inv=2
[DSB @ 8900000 calls] bc=12 isBypassOn=false| real=29 virt=1113551 notrack=7786419 | touchRes=655625(eff=13,ineff=655612) resetRes=0(ineff=0,eff=0) | bc++=655612 bc--=13 inv=3
[DSB @ 9000000 calls] bc=12 isBypassOn=false| real=29 virt=1125930 notrack=7874040 | touchRes=663140(eff=13,ineff=663127) resetRes=0(ineff=0,eff=0) | bc++=663127 bc--=13 inv=5
[DSB @ 9100000 calls] bc=12 isBypassOn=false| real=29 virt=1138677 notrack=7961293 | touchRes=670767(eff=13,ineff=670754) resetRes=0(ineff=0,eff=0) | bc++=670754 bc--=13 inv=5
[DSB @ 9200000 calls] bc=12 isBypassOn=false| real=29 virt=1151101 notrack=8048869 | touchRes=678403(eff=13,ineff=678390) resetRes=0(ineff=0,eff=0) | bc++=678390 bc--=13 inv=6
[DSB @ 9300000 calls] bc=12 isBypassOn=false| real=29 virt=1163667 notrack=8136303 | touchRes=686040(eff=13,ineff=686027) resetRes=0(ineff=0,eff=0) | bc++=686027 bc--=13 inv=7
[DSB @ 9400000 calls] bc=12 isBypassOn=false| real=29 virt=1176209 notrack=8223761 | touchRes=693653(eff=13,ineff=693640) resetRes=0(ineff=0,eff=0) | bc++=693640 bc--=13 inv=7
[DSB @ 9500000 calls] bc=12 isBypassOn=false| real=29 virt=1188868 notrack=8311102 | touchRes=701293(eff=13,ineff=701280) resetRes=0(ineff=0,eff=0) | bc++=701280 bc--=13 inv=7
[DSB @ 9600000 calls] bc=12 isBypassOn=false| real=29 virt=1201395 notrack=8398575 | touchRes=708870(eff=13,ineff=708857) resetRes=0(ineff=0,eff=0) | bc++=708857 bc--=13 inv=7
[DSB @ 9700000 calls] bc=12 isBypassOn=false| real=29 virt=1213826 notrack=8486144 | touchRes=716457(eff=13,ineff=716444) resetRes=0(ineff=0,eff=0) | bc++=716444 bc--=13 inv=7
[DSB @ 9800000 calls] bc=12 isBypassOn=false| real=29 virt=1226364 notrack=8573606 | touchRes=724073(eff=13,ineff=724060) resetRes=0(ineff=0,eff=0) | bc++=724060 bc--=13 inv=7
Exiting @ tick 26658420315500 because a thread reached the max instruction count
