warn: The `get_runtime_isa` function is deprecated. Please migrate away from using this function.
warn: The se.py script is deprecated. It will be removed in future releases of  gem5.
warn: The `get_runtime_isa` function is deprecated. Please migrate away from using this function.
Global frequency set at 1000000000000 ticks per second
src/mem/dram_interface.cc:690: warn: DRAM device capacity (8192 Mbytes) does not match the address range assigned (16384 Mbytes)
src/base/statistics.hh:279: warn: One of the stats is a legacy stat. Legacy stat is a stat that does not belong to any statistics::Group. Legacy stat is deprecated.
src/base/remote_gdb.cc:418: warn: Sockets disabled, not accepting gdb connections
src/sim/process.cc:396: warn: Checkpoints for pipes, device drivers and sockets do not work.
gem5 Simulator System.  https://www.gem5.org
gem5 is copyrighted software; use the --copyright option for details.

gem5 version 23.0.0.1
gem5 compiled Apr  6 2026 01:50:35
gem5 started Apr  7 2026 09:41:35
gem5 executing on b49ce2a326be, pid 78019
command line: /opt/gem5/build/X86/gem5.opt --outdir=/workspace/results_l3/4MB/policy0Config1/roms /workspace/configs/run_spec_l3.py --rp-type=DSBRP --l3-size=4MB --l3-assoc=16 --cpu-type=DerivO3CPU --cmd=./sroms_base.gem5-x86 --options= --mem-size=16GB --maxinst=250000000 --caches --l2cache --l1d_size=32kB --l1i_size=32kB --l1d_assoc=8 --l1i_assoc=8 --l2_size=256kB --l2_assoc=8 --checkpoint-restore=1 --checkpoint-dir=/workspace/checkpoints/roms/m5out --restore-with-cpu=AtomicSimpleCPU --standard-switch=1 --warmup-insts=50000000 --input=ocean_benchmark3.in --dsb-enable-bypass=true --dsb-enable-aging=false --dsb-bypass-counter=6 --dsb-virtual-bypass-counter=4 --dsb-random-promotion=0 --dsb-minimum-bypass-counter=8

info: Standard input is not a terminal, disabling listeners.
Replacement policy: DSBRP
L1I size: 32kB, assoc: 8
L1D size: 32kB, assoc: 8
L2 size: 256kB, assoc: 8
L3 size: 4MB, L3 assoc: 16
Switch at instruction count:1
src/sim/simulate.cc:194: info: Entering event queue @ 26962283379000.  Starting simulation...
src/sim/power_state.cc:105: warn: PowerState: Already in the requested power state, request ignored
Switched CPUS @ tick 26962283380500
switching cpus
Switch at instruction count:50000000
src/sim/simulate.cc:194: info: Entering event queue @ 26962283380500.  Starting simulation...
[DSB @ 100000 calls] bc=8 isBypassOn=false| real=223 virt=6183 notrack=93593 | touchRes=5217(eff=78,ineff=5139) resetRes=161(ineff=21,eff=140) | bc++=5160 bc--=218 inv=713
[DSB @ 200000 calls] bc=8 isBypassOn=false| real=2597 virt=12277 notrack=185125 | touchRes=9812(eff=702,ineff=9110) resetRes=955(ineff=388,eff=567) | bc++=9498 bc--=1269 inv=2938
src/sim/simulate.cc:194: info: Entering event queue @ 27103334242500.  Starting simulation...
Switching CPUS @ tick 27103334242500
Simulation ends instruction count:250000000
switching cpus
**** REAL SIMULATION ****
src/sim/simulate.cc:194: info: Entering event queue @ 27103334510000.  Starting simulation...
[DSB @ 300000 calls] bc=8 isBypassOn=false| real=5434 virt=18327 notrack=276238 | touchRes=14450(eff=1427,ineff=13023) resetRes=2212(ineff=1174,eff=1038) | bc++=14197 bc--=2465 inv=5314
[DSB @ 400000 calls] bc=8 isBypassOn=false| real=16551 virt=23998 notrack=359450 | touchRes=19735(eff=3420,ineff=16315) resetRes=3814(ineff=2363,eff=1451) | bc++=18678 bc--=4871 inv=11707
[DSB @ 500000 calls] bc=8 isBypassOn=true| real=17644 virt=30134 notrack=452221 | touchRes=23753(eff=3707,ineff=20046) resetRes=4495(ineff=2659,eff=1836) | bc++=22705 bc--=5543 inv=14029
[DSB @ 600000 calls] bc=8 isBypassOn=false| real=20625 virt=36285 notrack=543089 | touchRes=28122(eff=4273,ineff=23849) resetRes=5329(ineff=3068,eff=2261) | bc++=26917 bc--=6534 inv=16674
[DSB @ 700000 calls] bc=8 isBypassOn=false| real=21180 virt=42535 notrack=636284 | touchRes=32197(eff=4424,ineff=27773) resetRes=6011(ineff=3333,eff=2678) | bc++=31106 bc--=7102 inv=18579
[DSB @ 800000 calls] bc=8 isBypassOn=false| real=23383 virt=48563 notrack=728053 | touchRes=36498(eff=5127,ineff=31371) resetRes=6966(ineff=3899,eff=3067) | bc++=35270 bc--=8194 inv=21024
[DSB @ 900000 calls] bc=0 isBypassOn=true| real=25140 virt=54773 notrack=820086 | touchRes=40589(eff=5560,ineff=35029) resetRes=7622(ineff=4117,eff=3505) | bc++=39146 bc--=9065 inv=23827
[DSB @ 1000000 calls] bc=8 isBypassOn=false| real=28298 virt=60855 notrack=910846 | touchRes=44960(eff=6376,ineff=38584) resetRes=8581(ineff=4593,eff=3988) | bc++=43177 bc--=10364 inv=27032
[DSB @ 1100000 calls] bc=8 isBypassOn=false| real=29409 virt=66927 notrack=1003663 | touchRes=48786(eff=6702,ineff=42084) resetRes=9447(ineff=5084,eff=4363) | bc++=47168 bc--=11065 inv=29450
[DSB @ 1200000 calls] bc=8 isBypassOn=false| real=31975 virt=73008 notrack=1095016 | touchRes=53007(eff=7277,ineff=45730) resetRes=10914(ineff=6161,eff=4753) | bc++=51891 bc--=12030 inv=32093
[DSB @ 1300000 calls] bc=8 isBypassOn=false| real=32385 virt=79228 notrack=1188386 | touchRes=56803(eff=7474,ineff=49329) resetRes=11409(ineff=6262,eff=5147) | bc++=55591 bc--=12621 inv=34208
[DSB @ 1400000 calls] bc=7 isBypassOn=true| real=35445 virt=85226 notrack=1279328 | touchRes=61084(eff=8350,ineff=52734) resetRes=12403(ineff=6829,eff=5574) | bc++=59563 bc--=13924 inv=37424
Exiting @ tick 27228973202000 because a thread reached the max instruction count
