warn: The `get_runtime_isa` function is deprecated. Please migrate away from using this function.
warn: The se.py script is deprecated. It will be removed in future releases of  gem5.
warn: The `get_runtime_isa` function is deprecated. Please migrate away from using this function.
Global frequency set at 1000000000000 ticks per second
src/base/statistics.hh:279: warn: One of the stats is a legacy stat. Legacy stat is a stat that does not belong to any statistics::Group. Legacy stat is deprecated.
src/base/remote_gdb.cc:418: warn: Sockets disabled, not accepting gdb connections
src/sim/process.cc:396: warn: Checkpoints for pipes, device drivers and sockets do not work.
gem5 Simulator System.  https://www.gem5.org
gem5 is copyrighted software; use the --copyright option for details.

gem5 version 23.0.0.1
gem5 compiled Apr  6 2026 01:50:35
gem5 started Apr  7 2026 09:55:00
gem5 executing on b49ce2a326be, pid 80175
command line: /opt/gem5/build/X86/gem5.opt --outdir=/workspace/results_l3/4MB/policy0Config2/mcf /workspace/configs/run_spec_l3.py --rp-type=DSBRP --l3-size=4MB --l3-assoc=16 --cpu-type=DerivO3CPU --cmd=./mcf_s_base.gem5-x86 --options=inp.in --mem-size=8GB --maxinst=250000000 --caches --l2cache --l1d_size=32kB --l1i_size=32kB --l1d_assoc=8 --l1i_assoc=8 --l2_size=256kB --l2_assoc=8 --checkpoint-restore=1 --checkpoint-dir=/workspace/checkpoints/mcf/m5out --restore-with-cpu=AtomicSimpleCPU --standard-switch=1 --warmup-insts=50000000 --dsb-enable-bypass=true --dsb-enable-aging=false --dsb-bypass-counter=6 --dsb-virtual-bypass-counter=3 --dsb-random-promotion=0 --dsb-minimum-bypass-counter=12

info: Standard input is not a terminal, disabling listeners.
Replacement policy: DSBRP
L1I size: 32kB, assoc: 8
L1D size: 32kB, assoc: 8
L2 size: 256kB, assoc: 8
L3 size: 4MB, L3 assoc: 16
Switch at instruction count:1
src/sim/simulate.cc:194: info: Entering event queue @ 24065090964500.  Starting simulation...
src/sim/simulate.cc:194: info: Entering event queue @ 24065090965500.  Starting simulation...
src/sim/power_state.cc:105: warn: PowerState: Already in the requested power state, request ignored
Switched CPUS @ tick 24065090965500
switching cpus
Switch at instruction count:50000000
src/sim/simulate.cc:194: info: Entering event queue @ 24065090966000.  Starting simulation...
[DSB @ 100000 calls] bc=12 isBypassOn=false| real=31 virt=12435 notrack=87533 | touchRes=10846(eff=16,ineff=10830) resetRes=49(ineff=12,eff=37) | bc++=10842 bc--=53 inv=859
[DSB @ 200000 calls] bc=12 isBypassOn=false| real=31 virt=24915 notrack=175053 | touchRes=20650(eff=16,ineff=20634) resetRes=140(ineff=12,eff=128) | bc++=20646 bc--=144 inv=3114
src/sim/simulate.cc:194: info: Entering event queue @ 24214017106500.  Starting simulation...
Switching CPUS @ tick 24214017106500
Simulation ends instruction count:250000000
switching cpus
**** REAL SIMULATION ****
src/sim/simulate.cc:194: info: Entering event queue @ 24214017269000.  Starting simulation...
[DSB @ 300000 calls] bc=12 isBypassOn=false| real=31 virt=37399 notrack=262569 | touchRes=30592(eff=16,ineff=30576) resetRes=234(ineff=12,eff=222) | bc++=30588 bc--=238 inv=5404
[DSB @ 400000 calls] bc=12 isBypassOn=false| real=31 virt=49858 notrack=350110 | touchRes=40410(eff=16,ineff=40394) resetRes=296(ineff=12,eff=284) | bc++=40406 bc--=300 inv=7558
[DSB @ 500000 calls] bc=12 isBypassOn=false| real=31 virt=62418 notrack=437550 | touchRes=50131(eff=16,ineff=50115) resetRes=375(ineff=12,eff=363) | bc++=50127 bc--=379 inv=9991
[DSB @ 600000 calls] bc=12 isBypassOn=false| real=31 virt=74834 notrack=525134 | touchRes=60119(eff=16,ineff=60103) resetRes=455(ineff=12,eff=443) | bc++=60115 bc--=459 inv=12125
[DSB @ 700000 calls] bc=12 isBypassOn=false| real=31 virt=87343 notrack=612625 | touchRes=69817(eff=16,ineff=69801) resetRes=544(ineff=12,eff=532) | bc++=69813 bc--=548 inv=14402
[DSB @ 800000 calls] bc=12 isBypassOn=false| real=33 virt=99847 notrack=700119 | touchRes=79694(eff=16,ineff=79678) resetRes=602(ineff=12,eff=590) | bc++=79690 bc--=606 inv=16679
[DSB @ 900000 calls] bc=12 isBypassOn=false| real=34 virt=112192 notrack=787773 | touchRes=89534(eff=16,ineff=89518) resetRes=674(ineff=12,eff=662) | bc++=89530 bc--=678 inv=18852
[DSB @ 1000000 calls] bc=12 isBypassOn=false| real=34 virt=124583 notrack=875382 | touchRes=99306(eff=16,ineff=99290) resetRes=752(ineff=12,eff=740) | bc++=99302 bc--=756 inv=21120
[DSB @ 1100000 calls] bc=12 isBypassOn=false| real=34 virt=136989 notrack=962976 | touchRes=108813(eff=16,ineff=108797) resetRes=830(ineff=12,eff=818) | bc++=108809 bc--=834 inv=23499
[DSB @ 1200000 calls] bc=12 isBypassOn=false| real=34 virt=149370 notrack=1050595 | touchRes=118686(eff=16,ineff=118670) resetRes=890(ineff=12,eff=878) | bc++=118682 bc--=894 inv=25700
[DSB @ 1300000 calls] bc=12 isBypassOn=false| real=34 virt=161645 notrack=1138320 | touchRes=128530(eff=16,ineff=128514) resetRes=947(ineff=12,eff=935) | bc++=128526 bc--=951 inv=27838
[DSB @ 1400000 calls] bc=12 isBypassOn=false| real=34 virt=174289 notrack=1225676 | touchRes=138259(eff=16,ineff=138243) resetRes=1008(ineff=12,eff=996) | bc++=138255 bc--=1012 inv=30190
[DSB @ 1500000 calls] bc=12 isBypassOn=false| real=35 virt=186663 notrack=1313301 | touchRes=147980(eff=16,ineff=147964) resetRes=1100(ineff=12,eff=1088) | bc++=147976 bc--=1104 inv=32480
[DSB @ 1600000 calls] bc=12 isBypassOn=false| real=35 virt=199153 notrack=1400811 | touchRes=157826(eff=16,ineff=157810) resetRes=1182(ineff=12,eff=1170) | bc++=157822 bc--=1186 inv=34701
[DSB @ 1700000 calls] bc=12 isBypassOn=false| real=35 virt=211540 notrack=1488424 | touchRes=167673(eff=16,ineff=167657) resetRes=1237(ineff=12,eff=1225) | bc++=167669 bc--=1241 inv=36853
Exiting @ tick 24406412424000 because a thread reached the max instruction count
