warn: The `get_runtime_isa` function is deprecated. Please migrate away from using this function.
warn: The se.py script is deprecated. It will be removed in future releases of  gem5.
warn: The `get_runtime_isa` function is deprecated. Please migrate away from using this function.
Global frequency set at 1000000000000 ticks per second
src/base/statistics.hh:279: warn: One of the stats is a legacy stat. Legacy stat is a stat that does not belong to any statistics::Group. Legacy stat is deprecated.
src/base/remote_gdb.cc:418: warn: Sockets disabled, not accepting gdb connections
src/sim/process.cc:396: warn: Checkpoints for pipes, device drivers and sockets do not work.
gem5 Simulator System.  https://www.gem5.org
gem5 is copyrighted software; use the --copyright option for details.

gem5 version 23.0.0.1
gem5 compiled Apr  6 2026 01:50:35
gem5 started Apr  7 2026 08:42:55
gem5 executing on b49ce2a326be, pid 69082
command line: /opt/gem5/build/X86/gem5.opt --outdir=/workspace/results_l3/4MB/policy0Config1/mcf /workspace/configs/run_spec_l3.py --rp-type=DSBRP --l3-size=4MB --l3-assoc=16 --cpu-type=DerivO3CPU --cmd=./mcf_s_base.gem5-x86 --options=inp.in --mem-size=8GB --maxinst=250000000 --caches --l2cache --l1d_size=32kB --l1i_size=32kB --l1d_assoc=8 --l1i_assoc=8 --l2_size=256kB --l2_assoc=8 --checkpoint-restore=1 --checkpoint-dir=/workspace/checkpoints/mcf/m5out --restore-with-cpu=AtomicSimpleCPU --standard-switch=1 --warmup-insts=50000000 --dsb-enable-bypass=true --dsb-enable-aging=false --dsb-bypass-counter=6 --dsb-virtual-bypass-counter=4 --dsb-random-promotion=0 --dsb-minimum-bypass-counter=8

info: Standard input is not a terminal, disabling listeners.
Replacement policy: DSBRP
L1I size: 32kB, assoc: 8
L1D size: 32kB, assoc: 8
L2 size: 256kB, assoc: 8
L3 size: 4MB, L3 assoc: 16
Switch at instruction count:1
src/sim/simulate.cc:194: info: Entering event queue @ 24065090964500.  Starting simulation...
src/sim/simulate.cc:194: info: Entering event queue @ 24065090965500.  Starting simulation...
src/sim/power_state.cc:105: warn: PowerState: Already in the requested power state, request ignored
Switched CPUS @ tick 24065090965500
switching cpus
Switch at instruction count:50000000
src/sim/simulate.cc:194: info: Entering event queue @ 24065090966000.  Starting simulation...
[DSB @ 100000 calls] bc=8 isBypassOn=false| real=33 virt=6254 notrack=93712 | touchRes=5578(eff=19,ineff=5559) resetRes=26(ineff=11,eff=15) | bc++=5570 bc--=34 inv=465
[DSB @ 200000 calls] bc=8 isBypassOn=false| real=38 virt=12567 notrack=187394 | touchRes=10548(eff=20,ineff=10528) resetRes=76(ineff=13,eff=63) | bc++=10541 bc--=83 inv=1675
src/sim/simulate.cc:194: info: Entering event queue @ 24214017106500.  Starting simulation...
Switching CPUS @ tick 24214017106500
Simulation ends instruction count:250000000
switching cpus
**** REAL SIMULATION ****
src/sim/simulate.cc:194: info: Entering event queue @ 24214017269000.  Starting simulation...
[DSB @ 300000 calls] bc=8 isBypassOn=false| real=38 virt=18754 notrack=281207 | touchRes=15526(eff=20,ineff=15506) resetRes=100(ineff=13,eff=87) | bc++=15519 bc--=107 inv=2851
[DSB @ 400000 calls] bc=8 isBypassOn=false| real=45 virt=24966 notrack=374988 | touchRes=20422(eff=23,ineff=20399) resetRes=133(ineff=14,eff=119) | bc++=20413 bc--=142 inv=4017
[DSB @ 500000 calls] bc=8 isBypassOn=false| real=49 virt=31283 notrack=468667 | touchRes=25309(eff=24,ineff=25285) resetRes=170(ineff=14,eff=156) | bc++=25299 bc--=180 inv=5348
[DSB @ 600000 calls] bc=8 isBypassOn=false| real=49 virt=37492 notrack=562458 | touchRes=30287(eff=24,ineff=30263) resetRes=208(ineff=14,eff=194) | bc++=30277 bc--=218 inv=6513
[DSB @ 700000 calls] bc=8 isBypassOn=false| real=54 virt=43844 notrack=656101 | touchRes=35222(eff=24,ineff=35198) resetRes=246(ineff=14,eff=232) | bc++=35212 bc--=256 inv=7765
[DSB @ 800000 calls] bc=8 isBypassOn=false| real=54 virt=50136 notrack=749809 | touchRes=40189(eff=24,ineff=40165) resetRes=279(ineff=14,eff=265) | bc++=40179 bc--=289 inv=8994
[DSB @ 900000 calls] bc=8 isBypassOn=false| real=57 virt=56367 notrack=843575 | touchRes=45080(eff=24,ineff=45056) resetRes=305(ineff=14,eff=291) | bc++=45070 bc--=315 inv=10226
[DSB @ 1000000 calls] bc=8 isBypassOn=false| real=61 virt=62538 notrack=937400 | touchRes=49948(eff=24,ineff=49924) resetRes=339(ineff=14,eff=325) | bc++=49938 bc--=349 inv=11448
[DSB @ 1100000 calls] bc=8 isBypassOn=false| real=64 virt=68822 notrack=1031113 | touchRes=54822(eff=24,ineff=54798) resetRes=384(ineff=16,eff=368) | bc++=54814 bc--=392 inv=12672
[DSB @ 1200000 calls] bc=8 isBypassOn=false| real=66 virt=74958 notrack=1124975 | touchRes=59737(eff=24,ineff=59713) resetRes=409(ineff=16,eff=393) | bc++=59729 bc--=417 inv=13834
[DSB @ 1300000 calls] bc=8 isBypassOn=false| real=70 virt=81219 notrack=1218710 | touchRes=64786(eff=25,ineff=64761) resetRes=444(ineff=17,eff=427) | bc++=64778 bc--=452 inv=14969
[DSB @ 1400000 calls] bc=8 isBypassOn=false| real=76 virt=87552 notrack=1312371 | touchRes=69686(eff=27,ineff=69659) resetRes=487(ineff=19,eff=468) | bc++=69678 bc--=495 inv=16199
[DSB @ 1500000 calls] bc=8 isBypassOn=false| real=81 virt=93805 notrack=1406113 | touchRes=74602(eff=28,ineff=74574) resetRes=541(ineff=21,eff=520) | bc++=74595 bc--=548 inv=17410
[DSB @ 1600000 calls] bc=8 isBypassOn=false| real=85 virt=100199 notrack=1499715 | touchRes=79647(eff=29,ineff=79618) resetRes=575(ineff=21,eff=554) | bc++=79639 bc--=583 inv=18683
[DSB @ 1700000 calls] bc=8 isBypassOn=false| real=90 virt=106539 notrack=1593370 | touchRes=84701(eff=29,ineff=84672) resetRes=606(ineff=21,eff=585) | bc++=84693 bc--=614 inv=19846
Exiting @ tick 24406415036000 because a thread reached the max instruction count
