warn: The `get_runtime_isa` function is deprecated. Please migrate away from using this function.
warn: The se.py script is deprecated. It will be removed in future releases of  gem5.
warn: The `get_runtime_isa` function is deprecated. Please migrate away from using this function.
Global frequency set at 1000000000000 ticks per second
src/mem/dram_interface.cc:690: warn: DRAM device capacity (8192 Mbytes) does not match the address range assigned (16384 Mbytes)
src/base/statistics.hh:279: warn: One of the stats is a legacy stat. Legacy stat is a stat that does not belong to any statistics::Group. Legacy stat is deprecated.
src/base/remote_gdb.cc:418: warn: Sockets disabled, not accepting gdb connections
src/sim/process.cc:396: warn: Checkpoints for pipes, device drivers and sockets do not work.
gem5 Simulator System.  https://www.gem5.org
gem5 is copyrighted software; use the --copyright option for details.

gem5 version 23.0.0.1
gem5 compiled Apr  6 2026 01:50:35
gem5 started Apr  6 2026 08:59:24
gem5 executing on b49ce2a326be, pid 168257
command line: /opt/gem5/build/X86/gem5.opt --outdir=/workspace/results_l3/1MB/policy1Config3/bwaves /workspace/configs/run_spec_l3.py --rp-type=DSBRP --l3-size=1MB --l3-assoc=16 --cpu-type=DerivO3CPU --cmd=./speed_bwaves_base.gem5-x86 --options=bwaves_1 --mem-size=16GB --maxinst=250000000 --caches --l2cache --l1d_size=32kB --l1i_size=32kB --l1d_assoc=8 --l1i_assoc=8 --l2_size=256kB --l2_assoc=8 --checkpoint-restore=1 --checkpoint-dir=/workspace/checkpoints/bwaves/m5out --restore-with-cpu=AtomicSimpleCPU --standard-switch=1 --warmup-insts=50000000 --input=bwaves_1.in --dsb-enable-bypass=true --dsb-enable-aging=true --dsb-bypass-counter=3 --dsb-virtual-bypass-counter=3 --dsb-random-promotion=4 --dsb-minimum-bypass-counter=12

info: Standard input is not a terminal, disabling listeners.
Replacement policy: DSBRP
L1I size: 32kB, assoc: 8
L1D size: 32kB, assoc: 8
L2 size: 256kB, assoc: 8
L3 size: 1MB, L3 assoc: 16
Switch at instruction count:1
src/sim/simulate.cc:194: info: Entering event queue @ 26022662981500.  Starting simulation...
src/sim/simulate.cc:194: info: Entering event queue @ 26022662983500.  Starting simulation...
src/sim/power_state.cc:105: warn: PowerState: Already in the requested power state, request ignored
Switched CPUS @ tick 26022662983500
switching cpus
Switch at instruction count:50000000
src/sim/simulate.cc:194: info: Entering event queue @ 26022662984000.  Starting simulation...
[DSB @ 100000 calls] bc=12 isBypassOn=false| real=305 virt=12442 notrack=87252 | touchRes=7269(eff=141,ineff=7128) resetRes=0(ineff=0,eff=0) | bc++=7128 bc--=141 inv=1
[DSB @ 200000 calls] bc=12 isBypassOn=false| real=305 virt=24997 notrack=174697 | touchRes=14673(eff=141,ineff=14532) resetRes=0(ineff=0,eff=0) | bc++=14532 bc--=141 inv=1
[DSB @ 300000 calls] bc=12 isBypassOn=false| real=305 virt=37448 notrack=262246 | touchRes=22108(eff=141,ineff=21967) resetRes=0(ineff=0,eff=0) | bc++=21967 bc--=141 inv=1
[DSB @ 400000 calls] bc=12 isBypassOn=false| real=305 virt=50042 notrack=349652 | touchRes=29594(eff=141,ineff=29453) resetRes=0(ineff=0,eff=0) | bc++=29453 bc--=141 inv=1
[DSB @ 500000 calls] bc=12 isBypassOn=false| real=305 virt=62462 notrack=437232 | touchRes=36988(eff=141,ineff=36847) resetRes=0(ineff=0,eff=0) | bc++=36847 bc--=141 inv=1
[DSB @ 600000 calls] bc=12 isBypassOn=false| real=305 virt=74981 notrack=524713 | touchRes=44376(eff=141,ineff=44235) resetRes=0(ineff=0,eff=0) | bc++=44235 bc--=141 inv=1
[DSB @ 700000 calls] bc=12 isBypassOn=false| real=305 virt=87304 notrack=612390 | touchRes=51834(eff=141,ineff=51693) resetRes=0(ineff=0,eff=0) | bc++=51693 bc--=141 inv=1
[DSB @ 800000 calls] bc=12 isBypassOn=false| real=305 virt=99827 notrack=699867 | touchRes=59226(eff=141,ineff=59085) resetRes=0(ineff=0,eff=0) | bc++=59085 bc--=141 inv=1
[DSB @ 900000 calls] bc=12 isBypassOn=false| real=305 virt=112231 notrack=787463 | touchRes=66646(eff=141,ineff=66505) resetRes=0(ineff=0,eff=0) | bc++=66505 bc--=141 inv=1
[DSB @ 1000000 calls] bc=12 isBypassOn=false| real=305 virt=124730 notrack=874964 | touchRes=74181(eff=141,ineff=74040) resetRes=0(ineff=0,eff=0) | bc++=74040 bc--=141 inv=1
[DSB @ 1100000 calls] bc=12 isBypassOn=false| real=305 virt=137209 notrack=962485 | touchRes=81578(eff=141,ineff=81437) resetRes=0(ineff=0,eff=0) | bc++=81437 bc--=141 inv=1
[DSB @ 1200000 calls] bc=12 isBypassOn=false| real=305 virt=149663 notrack=1050031 | touchRes=89014(eff=141,ineff=88873) resetRes=0(ineff=0,eff=0) | bc++=88873 bc--=141 inv=1
[DSB @ 1300000 calls] bc=12 isBypassOn=false| real=305 virt=162336 notrack=1137358 | touchRes=96541(eff=141,ineff=96400) resetRes=0(ineff=0,eff=0) | bc++=96400 bc--=141 inv=1
[DSB @ 1400000 calls] bc=12 isBypassOn=false| real=305 virt=174964 notrack=1224730 | touchRes=104021(eff=141,ineff=103880) resetRes=0(ineff=0,eff=0) | bc++=103880 bc--=141 inv=1
[DSB @ 1500000 calls] bc=12 isBypassOn=false| real=305 virt=187528 notrack=1312166 | touchRes=111470(eff=141,ineff=111329) resetRes=0(ineff=0,eff=0) | bc++=111329 bc--=141 inv=1
[DSB @ 1600000 calls] bc=12 isBypassOn=false| real=305 virt=199999 notrack=1399695 | touchRes=118954(eff=141,ineff=118813) resetRes=0(ineff=0,eff=0) | bc++=118813 bc--=141 inv=1
src/sim/simulate.cc:194: info: Entering event queue @ 26278335725500.  Starting simulation...
Switching CPUS @ tick 26278335725500
Simulation ends instruction count:250000000
switching cpus
**** REAL SIMULATION ****
src/sim/simulate.cc:194: info: Entering event queue @ 26278335727500.  Starting simulation...
[DSB @ 1700000 calls] bc=12 isBypassOn=false| real=305 virt=212412 notrack=1487282 | touchRes=126322(eff=141,ineff=126181) resetRes=0(ineff=0,eff=0) | bc++=126181 bc--=141 inv=1
[DSB @ 1800000 calls] bc=12 isBypassOn=false| real=305 virt=225050 notrack=1574644 | touchRes=133766(eff=141,ineff=133625) resetRes=0(ineff=0,eff=0) | bc++=133625 bc--=141 inv=1
[DSB @ 1900000 calls] bc=12 isBypassOn=false| real=305 virt=237394 notrack=1662300 | touchRes=141226(eff=141,ineff=141085) resetRes=0(ineff=0,eff=0) | bc++=141085 bc--=141 inv=1
[DSB @ 2000000 calls] bc=12 isBypassOn=false| real=305 virt=250082 notrack=1749612 | touchRes=148742(eff=141,ineff=148601) resetRes=0(ineff=0,eff=0) | bc++=148601 bc--=141 inv=1
[DSB @ 2100000 calls] bc=12 isBypassOn=false| real=305 virt=262744 notrack=1836950 | touchRes=156269(eff=141,ineff=156128) resetRes=0(ineff=0,eff=0) | bc++=156128 bc--=141 inv=2
[DSB @ 2200000 calls] bc=12 isBypassOn=false| real=305 virt=275242 notrack=1924452 | touchRes=163586(eff=141,ineff=163445) resetRes=0(ineff=0,eff=0) | bc++=163445 bc--=141 inv=2
[DSB @ 2300000 calls] bc=12 isBypassOn=false| real=305 virt=287613 notrack=2012081 | touchRes=170854(eff=141,ineff=170713) resetRes=0(ineff=0,eff=0) | bc++=170713 bc--=141 inv=2
[DSB @ 2400000 calls] bc=12 isBypassOn=false| real=305 virt=300099 notrack=2099595 | touchRes=178188(eff=141,ineff=178047) resetRes=0(ineff=0,eff=0) | bc++=178047 bc--=141 inv=2
[DSB @ 2500000 calls] bc=12 isBypassOn=false| real=305 virt=312635 notrack=2187059 | touchRes=185450(eff=141,ineff=185309) resetRes=0(ineff=0,eff=0) | bc++=185309 bc--=141 inv=2
[DSB @ 2600000 calls] bc=12 isBypassOn=false| real=305 virt=325164 notrack=2274530 | touchRes=192852(eff=141,ineff=192711) resetRes=0(ineff=0,eff=0) | bc++=192711 bc--=141 inv=2
[DSB @ 2700000 calls] bc=12 isBypassOn=false| real=305 virt=337638 notrack=2362056 | touchRes=200166(eff=141,ineff=200025) resetRes=0(ineff=0,eff=0) | bc++=200025 bc--=141 inv=2
[DSB @ 2800000 calls] bc=12 isBypassOn=false| real=305 virt=350109 notrack=2449585 | touchRes=207443(eff=141,ineff=207302) resetRes=0(ineff=0,eff=0) | bc++=207302 bc--=141 inv=2
[DSB @ 2900000 calls] bc=12 isBypassOn=false| real=305 virt=362668 notrack=2537026 | touchRes=214831(eff=141,ineff=214690) resetRes=0(ineff=0,eff=0) | bc++=214690 bc--=141 inv=2
[DSB @ 3000000 calls] bc=12 isBypassOn=false| real=305 virt=374996 notrack=2624698 | touchRes=222031(eff=141,ineff=221890) resetRes=0(ineff=0,eff=0) | bc++=221890 bc--=141 inv=2
[DSB @ 3100000 calls] bc=12 isBypassOn=false| real=305 virt=387532 notrack=2712162 | touchRes=229402(eff=141,ineff=229261) resetRes=0(ineff=0,eff=0) | bc++=229261 bc--=141 inv=2
[DSB @ 3200000 calls] bc=12 isBypassOn=false| real=305 virt=400007 notrack=2799687 | touchRes=236698(eff=141,ineff=236557) resetRes=0(ineff=0,eff=0) | bc++=236557 bc--=141 inv=2
[DSB @ 3300000 calls] bc=12 isBypassOn=false| real=305 virt=412610 notrack=2887084 | touchRes=243961(eff=141,ineff=243820) resetRes=0(ineff=0,eff=0) | bc++=243820 bc--=141 inv=2
[DSB @ 3400000 calls] bc=12 isBypassOn=false| real=305 virt=425013 notrack=2974681 | touchRes=251222(eff=141,ineff=251081) resetRes=0(ineff=0,eff=0) | bc++=251081 bc--=141 inv=2
[DSB @ 3500000 calls] bc=12 isBypassOn=false| real=305 virt=437505 notrack=3062189 | touchRes=258539(eff=141,ineff=258398) resetRes=0(ineff=0,eff=0) | bc++=258398 bc--=141 inv=2
[DSB @ 3600000 calls] bc=12 isBypassOn=false| real=305 virt=450114 notrack=3149580 | touchRes=265901(eff=141,ineff=265760) resetRes=0(ineff=0,eff=0) | bc++=265760 bc--=141 inv=2
[DSB @ 3700000 calls] bc=12 isBypassOn=false| real=305 virt=462675 notrack=3237019 | touchRes=273206(eff=141,ineff=273065) resetRes=0(ineff=0,eff=0) | bc++=273065 bc--=141 inv=2
[DSB @ 3800000 calls] bc=12 isBypassOn=false| real=305 virt=475198 notrack=3324496 | touchRes=280599(eff=141,ineff=280458) resetRes=0(ineff=0,eff=0) | bc++=280458 bc--=141 inv=2
[DSB @ 3900000 calls] bc=12 isBypassOn=false| real=305 virt=487712 notrack=3411982 | touchRes=287844(eff=141,ineff=287703) resetRes=0(ineff=0,eff=0) | bc++=287703 bc--=141 inv=2
[DSB @ 4000000 calls] bc=12 isBypassOn=false| real=305 virt=499928 notrack=3499766 | touchRes=295136(eff=141,ineff=294995) resetRes=0(ineff=0,eff=0) | bc++=294995 bc--=141 inv=2
[DSB @ 4100000 calls] bc=12 isBypassOn=false| real=305 virt=512525 notrack=3587169 | touchRes=302461(eff=141,ineff=302320) resetRes=0(ineff=0,eff=0) | bc++=302320 bc--=141 inv=2
[DSB @ 4200000 calls] bc=12 isBypassOn=false| real=305 virt=524858 notrack=3674836 | touchRes=309627(eff=141,ineff=309486) resetRes=0(ineff=0,eff=0) | bc++=309486 bc--=141 inv=2
[DSB @ 4300000 calls] bc=12 isBypassOn=false| real=305 virt=537429 notrack=3762265 | touchRes=316979(eff=141,ineff=316838) resetRes=0(ineff=0,eff=0) | bc++=316838 bc--=141 inv=2
[DSB @ 4400000 calls] bc=12 isBypassOn=false| real=305 virt=550095 notrack=3849599 | touchRes=324407(eff=141,ineff=324266) resetRes=0(ineff=0,eff=0) | bc++=324266 bc--=141 inv=2
[DSB @ 4500000 calls] bc=12 isBypassOn=false| real=305 virt=562546 notrack=3937148 | touchRes=331729(eff=141,ineff=331588) resetRes=0(ineff=0,eff=0) | bc++=331588 bc--=141 inv=2
[DSB @ 4600000 calls] bc=12 isBypassOn=false| real=305 virt=574983 notrack=4024711 | touchRes=338962(eff=141,ineff=338821) resetRes=0(ineff=0,eff=0) | bc++=338821 bc--=141 inv=2
[DSB @ 4700000 calls] bc=12 isBypassOn=false| real=305 virt=587494 notrack=4112200 | touchRes=346370(eff=141,ineff=346229) resetRes=0(ineff=0,eff=0) | bc++=346229 bc--=141 inv=2
[DSB @ 4800000 calls] bc=12 isBypassOn=false| real=305 virt=599956 notrack=4199738 | touchRes=353726(eff=141,ineff=353585) resetRes=0(ineff=0,eff=0) | bc++=353585 bc--=141 inv=2
[DSB @ 4900000 calls] bc=12 isBypassOn=false| real=305 virt=612446 notrack=4287248 | touchRes=361022(eff=141,ineff=360881) resetRes=0(ineff=0,eff=0) | bc++=360881 bc--=141 inv=2
[DSB @ 5000000 calls] bc=12 isBypassOn=false| real=305 virt=624961 notrack=4374733 | touchRes=368308(eff=141,ineff=368167) resetRes=0(ineff=0,eff=0) | bc++=368167 bc--=141 inv=2
[DSB @ 5100000 calls] bc=12 isBypassOn=false| real=305 virt=637520 notrack=4462174 | touchRes=375680(eff=141,ineff=375539) resetRes=0(ineff=0,eff=0) | bc++=375539 bc--=141 inv=2
[DSB @ 5200000 calls] bc=12 isBypassOn=false| real=305 virt=650188 notrack=4549506 | touchRes=383068(eff=141,ineff=382927) resetRes=0(ineff=0,eff=0) | bc++=382927 bc--=141 inv=2
[DSB @ 5300000 calls] bc=12 isBypassOn=false| real=305 virt=662759 notrack=4636935 | touchRes=390360(eff=141,ineff=390219) resetRes=0(ineff=0,eff=0) | bc++=390219 bc--=141 inv=2
[DSB @ 5400000 calls] bc=12 isBypassOn=false| real=305 virt=675408 notrack=4724286 | touchRes=397746(eff=141,ineff=397605) resetRes=0(ineff=0,eff=0) | bc++=397605 bc--=141 inv=2
[DSB @ 5500000 calls] bc=12 isBypassOn=false| real=305 virt=688183 notrack=4811511 | touchRes=405155(eff=141,ineff=405014) resetRes=0(ineff=0,eff=0) | bc++=405014 bc--=141 inv=2
[DSB @ 5600000 calls] bc=12 isBypassOn=false| real=305 virt=700514 notrack=4899180 | touchRes=412420(eff=141,ineff=412279) resetRes=0(ineff=0,eff=0) | bc++=412279 bc--=141 inv=2
[DSB @ 5700000 calls] bc=12 isBypassOn=false| real=305 virt=713008 notrack=4986686 | touchRes=419758(eff=141,ineff=419617) resetRes=0(ineff=0,eff=0) | bc++=419617 bc--=141 inv=2
[DSB @ 5800000 calls] bc=12 isBypassOn=false| real=305 virt=725503 notrack=5074191 | touchRes=427163(eff=141,ineff=427022) resetRes=0(ineff=0,eff=0) | bc++=427022 bc--=141 inv=2
[DSB @ 5900000 calls] bc=12 isBypassOn=false| real=305 virt=738263 notrack=5161431 | touchRes=434533(eff=141,ineff=434392) resetRes=0(ineff=0,eff=0) | bc++=434392 bc--=141 inv=2
[DSB @ 6000000 calls] bc=12 isBypassOn=false| real=305 virt=750548 notrack=5249146 | touchRes=441830(eff=141,ineff=441689) resetRes=0(ineff=0,eff=0) | bc++=441689 bc--=141 inv=2
[DSB @ 6100000 calls] bc=12 isBypassOn=false| real=305 virt=763121 notrack=5336573 | touchRes=449135(eff=141,ineff=448994) resetRes=0(ineff=0,eff=0) | bc++=448994 bc--=141 inv=2
[DSB @ 6200000 calls] bc=12 isBypassOn=false| real=305 virt=775537 notrack=5424157 | touchRes=456440(eff=141,ineff=456299) resetRes=0(ineff=0,eff=0) | bc++=456299 bc--=141 inv=2
[DSB @ 6300000 calls] bc=12 isBypassOn=false| real=305 virt=788027 notrack=5511667 | touchRes=463820(eff=141,ineff=463679) resetRes=0(ineff=0,eff=0) | bc++=463679 bc--=141 inv=2
[DSB @ 6400000 calls] bc=12 isBypassOn=false| real=305 virt=800430 notrack=5599264 | touchRes=471172(eff=141,ineff=471031) resetRes=0(ineff=0,eff=0) | bc++=471031 bc--=141 inv=2
[DSB @ 6500000 calls] bc=12 isBypassOn=false| real=305 virt=812975 notrack=5686719 | touchRes=478499(eff=141,ineff=478358) resetRes=0(ineff=0,eff=0) | bc++=478358 bc--=141 inv=2
[DSB @ 6600000 calls] bc=12 isBypassOn=false| real=305 virt=825544 notrack=5774150 | touchRes=485805(eff=141,ineff=485664) resetRes=0(ineff=0,eff=0) | bc++=485664 bc--=141 inv=2
[DSB @ 6700000 calls] bc=12 isBypassOn=false| real=305 virt=838092 notrack=5861602 | touchRes=493106(eff=141,ineff=492965) resetRes=0(ineff=0,eff=0) | bc++=492965 bc--=141 inv=2
[DSB @ 6800000 calls] bc=12 isBypassOn=false| real=305 virt=850725 notrack=5948969 | touchRes=500550(eff=141,ineff=500409) resetRes=0(ineff=0,eff=0) | bc++=500409 bc--=141 inv=2
[DSB @ 6900000 calls] bc=12 isBypassOn=false| real=305 virt=863204 notrack=6036490 | touchRes=507829(eff=141,ineff=507688) resetRes=0(ineff=0,eff=0) | bc++=507688 bc--=141 inv=2
[DSB @ 7000000 calls] bc=12 isBypassOn=false| real=305 virt=875590 notrack=6124104 | touchRes=515121(eff=141,ineff=514980) resetRes=0(ineff=0,eff=0) | bc++=514980 bc--=141 inv=2
[DSB @ 7100000 calls] bc=12 isBypassOn=false| real=305 virt=888215 notrack=6211479 | touchRes=522543(eff=141,ineff=522402) resetRes=0(ineff=0,eff=0) | bc++=522402 bc--=141 inv=2
[DSB @ 7200000 calls] bc=12 isBypassOn=false| real=305 virt=900658 notrack=6299036 | touchRes=529829(eff=141,ineff=529688) resetRes=0(ineff=0,eff=0) | bc++=529688 bc--=141 inv=2
[DSB @ 7300000 calls] bc=12 isBypassOn=false| real=305 virt=913246 notrack=6386448 | touchRes=537218(eff=141,ineff=537077) resetRes=0(ineff=0,eff=0) | bc++=537077 bc--=141 inv=2
[DSB @ 7400000 calls] bc=12 isBypassOn=false| real=305 virt=925544 notrack=6474150 | touchRes=544465(eff=141,ineff=544324) resetRes=0(ineff=0,eff=0) | bc++=544324 bc--=141 inv=2
[DSB @ 7500000 calls] bc=12 isBypassOn=false| real=305 virt=938174 notrack=6561520 | touchRes=551835(eff=141,ineff=551694) resetRes=0(ineff=0,eff=0) | bc++=551694 bc--=141 inv=2
[DSB @ 7600000 calls] bc=12 isBypassOn=false| real=305 virt=950719 notrack=6648975 | touchRes=559118(eff=141,ineff=558977) resetRes=0(ineff=0,eff=0) | bc++=558977 bc--=141 inv=2
[DSB @ 7700000 calls] bc=12 isBypassOn=false| real=305 virt=963158 notrack=6736536 | touchRes=566408(eff=141,ineff=566267) resetRes=0(ineff=0,eff=0) | bc++=566267 bc--=141 inv=2
[DSB @ 7800000 calls] bc=12 isBypassOn=false| real=305 virt=975497 notrack=6824197 | touchRes=573667(eff=141,ineff=573526) resetRes=0(ineff=0,eff=0) | bc++=573526 bc--=141 inv=2
[DSB @ 7900000 calls] bc=12 isBypassOn=false| real=305 virt=988153 notrack=6911541 | touchRes=581059(eff=141,ineff=580918) resetRes=0(ineff=0,eff=0) | bc++=580918 bc--=141 inv=2
[DSB @ 8000000 calls] bc=12 isBypassOn=false| real=305 virt=1000591 notrack=6999103 | touchRes=588343(eff=141,ineff=588202) resetRes=0(ineff=0,eff=0) | bc++=588202 bc--=141 inv=2
[DSB @ 8100000 calls] bc=12 isBypassOn=false| real=305 virt=1013162 notrack=7086532 | touchRes=595688(eff=141,ineff=595547) resetRes=0(ineff=0,eff=0) | bc++=595547 bc--=141 inv=2
[DSB @ 8200000 calls] bc=12 isBypassOn=false| real=305 virt=1025800 notrack=7173894 | touchRes=603043(eff=141,ineff=602902) resetRes=0(ineff=0,eff=0) | bc++=602902 bc--=141 inv=2
[DSB @ 8300000 calls] bc=12 isBypassOn=false| real=305 virt=1038495 notrack=7261199 | touchRes=610372(eff=141,ineff=610231) resetRes=0(ineff=0,eff=0) | bc++=610231 bc--=141 inv=2
[DSB @ 8400000 calls] bc=12 isBypassOn=false| real=305 virt=1051149 notrack=7348545 | touchRes=617700(eff=141,ineff=617559) resetRes=0(ineff=0,eff=0) | bc++=617559 bc--=141 inv=2
[DSB @ 8500000 calls] bc=12 isBypassOn=false| real=305 virt=1063604 notrack=7436090 | touchRes=624946(eff=141,ineff=624805) resetRes=0(ineff=0,eff=0) | bc++=624805 bc--=141 inv=2
[DSB @ 8600000 calls] bc=12 isBypassOn=false| real=305 virt=1076142 notrack=7523552 | touchRes=632363(eff=141,ineff=632222) resetRes=0(ineff=0,eff=0) | bc++=632222 bc--=141 inv=2
[DSB @ 8700000 calls] bc=12 isBypassOn=false| real=305 virt=1088625 notrack=7611069 | touchRes=639696(eff=141,ineff=639555) resetRes=0(ineff=0,eff=0) | bc++=639555 bc--=141 inv=2
[DSB @ 8800000 calls] bc=12 isBypassOn=false| real=305 virt=1101044 notrack=7698650 | touchRes=647257(eff=141,ineff=647116) resetRes=0(ineff=0,eff=0) | bc++=647116 bc--=141 inv=2
[DSB @ 8900000 calls] bc=12 isBypassOn=false| real=305 virt=1113540 notrack=7786154 | touchRes=654815(eff=141,ineff=654674) resetRes=0(ineff=0,eff=0) | bc++=654674 bc--=141 inv=2
[DSB @ 9000000 calls] bc=12 isBypassOn=false| real=305 virt=1125866 notrack=7873828 | touchRes=662407(eff=141,ineff=662266) resetRes=0(ineff=0,eff=0) | bc++=662266 bc--=141 inv=3
[DSB @ 9100000 calls] bc=12 isBypassOn=false| real=305 virt=1138350 notrack=7961344 | touchRes=669907(eff=141,ineff=669766) resetRes=0(ineff=0,eff=0) | bc++=669766 bc--=141 inv=4
[DSB @ 9200000 calls] bc=12 isBypassOn=false| real=305 virt=1150928 notrack=8048766 | touchRes=677491(eff=141,ineff=677350) resetRes=0(ineff=0,eff=0) | bc++=677350 bc--=141 inv=4
[DSB @ 9300000 calls] bc=12 isBypassOn=false| real=305 virt=1163489 notrack=8136205 | touchRes=685074(eff=141,ineff=684933) resetRes=0(ineff=0,eff=0) | bc++=684933 bc--=141 inv=4
[DSB @ 9400000 calls] bc=12 isBypassOn=false| real=305 virt=1175866 notrack=8223828 | touchRes=692712(eff=141,ineff=692571) resetRes=0(ineff=0,eff=0) | bc++=692571 bc--=141 inv=4
[DSB @ 9500000 calls] bc=12 isBypassOn=false| real=305 virt=1188290 notrack=8311404 | touchRes=700246(eff=141,ineff=700105) resetRes=0(ineff=0,eff=0) | bc++=700105 bc--=141 inv=4
[DSB @ 9600000 calls] bc=12 isBypassOn=false| real=305 virt=1200865 notrack=8398829 | touchRes=707825(eff=141,ineff=707684) resetRes=0(ineff=0,eff=0) | bc++=707684 bc--=141 inv=7
[DSB @ 9700000 calls] bc=12 isBypassOn=false| real=305 virt=1213359 notrack=8486335 | touchRes=715498(eff=141,ineff=715357) resetRes=0(ineff=0,eff=0) | bc++=715357 bc--=141 inv=7
[DSB @ 9800000 calls] bc=12 isBypassOn=false| real=305 virt=1225877 notrack=8573817 | touchRes=723090(eff=141,ineff=722949) resetRes=0(ineff=0,eff=0) | bc++=722949 bc--=141 inv=7
Exiting @ tick 26658420315500 because a thread reached the max instruction count
