warn: The `get_runtime_isa` function is deprecated. Please migrate away from using this function.
warn: The se.py script is deprecated. It will be removed in future releases of  gem5.
warn: The `get_runtime_isa` function is deprecated. Please migrate away from using this function.
Global frequency set at 1000000000000 ticks per second
src/base/statistics.hh:279: warn: One of the stats is a legacy stat. Legacy stat is a stat that does not belong to any statistics::Group. Legacy stat is deprecated.
src/base/remote_gdb.cc:418: warn: Sockets disabled, not accepting gdb connections
src/sim/process.cc:396: warn: Checkpoints for pipes, device drivers and sockets do not work.
gem5 Simulator System.  https://www.gem5.org
gem5 is copyrighted software; use the --copyright option for details.

gem5 version 23.0.0.1
gem5 compiled Apr  6 2026 01:50:35
gem5 started Apr  7 2026 08:42:55
gem5 executing on b49ce2a326be, pid 69084
command line: /opt/gem5/build/X86/gem5.opt --outdir=/workspace/results_l3/4MB/policy0Config1/gcc /workspace/configs/run_spec_l3.py --rp-type=DSBRP --l3-size=4MB --l3-assoc=16 --cpu-type=DerivO3CPU --cmd=./sgcc_base.gem5-x86 '--options=gcc-pp.c -O5 -fipa-pta -o gcc-pp.opts-O5_-fipa-pta.s' --mem-size=8GB --maxinst=250000000 --caches --l2cache --l1d_size=32kB --l1i_size=32kB --l1d_assoc=8 --l1i_assoc=8 --l2_size=256kB --l2_assoc=8 --checkpoint-restore=1 --checkpoint-dir=/workspace/checkpoints/gcc/m5out --restore-with-cpu=AtomicSimpleCPU --standard-switch=1 --warmup-insts=50000000 --dsb-enable-bypass=true --dsb-enable-aging=false --dsb-bypass-counter=6 --dsb-virtual-bypass-counter=4 --dsb-random-promotion=0 --dsb-minimum-bypass-counter=8

info: Standard input is not a terminal, disabling listeners.
Replacement policy: DSBRP
L1I size: 32kB, assoc: 8
L1D size: 32kB, assoc: 8
L2 size: 256kB, assoc: 8
L3 size: 4MB, L3 assoc: 16
Switch at instruction count:1
src/sim/simulate.cc:194: info: Entering event queue @ 27766339396500.  Starting simulation...
src/sim/simulate.cc:194: info: Entering event queue @ 27766339398500.  Starting simulation...
src/sim/power_state.cc:105: warn: PowerState: Already in the requested power state, request ignored
Switched CPUS @ tick 27766339398500
switching cpus
Switch at instruction count:50000000
src/sim/simulate.cc:194: info: Entering event queue @ 27766339399000.  Starting simulation...
src/sim/simulate.cc:194: info: Entering event queue @ 27880390373500.  Starting simulation...
Switching CPUS @ tick 27880390373500
Simulation ends instruction count:250000000
switching cpus
**** REAL SIMULATION ****
src/sim/simulate.cc:194: info: Entering event queue @ 27880390807250.  Starting simulation...
[DSB @ 100000 calls] bc=8 isBypassOn=false| real=74 virt=6173 notrack=93752 | touchRes=5436(eff=34,ineff=5402) resetRes=248(ineff=27,eff=221) | bc++=5429 bc--=255 inv=380
[DSB @ 200000 calls] bc=8 isBypassOn=true| real=308 virt=12385 notrack=187306 | touchRes=9954(eff=120,ineff=9834) resetRes=961(ineff=110,eff=851) | bc++=9944 bc--=971 inv=1528
[DSB @ 300000 calls] bc=8 isBypassOn=true| real=393 virt=18600 notrack=281006 | touchRes=14635(eff=139,ineff=14496) resetRes=1549(ineff=159,eff=1390) | bc++=14655 bc--=1529 inv=2464
Exiting @ tick 28044587891500 because a thread reached the max instruction count
