warn: The `get_runtime_isa` function is deprecated. Please migrate away from using this function.
warn: The se.py script is deprecated. It will be removed in future releases of  gem5.
warn: The `get_runtime_isa` function is deprecated. Please migrate away from using this function.
Global frequency set at 1000000000000 ticks per second
src/base/statistics.hh:279: warn: One of the stats is a legacy stat. Legacy stat is a stat that does not belong to any statistics::Group. Legacy stat is deprecated.
src/base/remote_gdb.cc:418: warn: Sockets disabled, not accepting gdb connections
src/sim/process.cc:396: warn: Checkpoints for pipes, device drivers and sockets do not work.
gem5 Simulator System.  https://www.gem5.org
gem5 is copyrighted software; use the --copyright option for details.

gem5 version 23.0.0.1
gem5 compiled Apr  6 2026 01:50:35
gem5 started Apr  7 2026 13:01:22
gem5 executing on b49ce2a326be, pid 110466
command line: /opt/gem5/build/X86/gem5.opt --outdir=/workspace/results_l3/4MB/policy1Config1/cam4 /workspace/configs/run_spec_l3.py --rp-type=DSBRP --l3-size=4MB --l3-assoc=16 --cpu-type=DerivO3CPU --cmd=./cam4_s_base.gem5-x86 --options= --mem-size=8GB --maxinst=250000000 --caches --l2cache --l1d_size=32kB --l1i_size=32kB --l1d_assoc=8 --l1i_assoc=8 --l2_size=256kB --l2_assoc=8 --checkpoint-restore=1 --checkpoint-dir=/workspace/checkpoints/cam4/m5out --restore-with-cpu=AtomicSimpleCPU --standard-switch=1 --warmup-insts=50000000 --dsb-enable-bypass=false --dsb-enable-aging=true --dsb-bypass-counter=6 --dsb-virtual-bypass-counter=4 --dsb-random-promotion=0 --dsb-minimum-bypass-counter=8

info: Standard input is not a terminal, disabling listeners.
Replacement policy: DSBRP
L1I size: 32kB, assoc: 8
L1D size: 32kB, assoc: 8
L2 size: 256kB, assoc: 8
L3 size: 4MB, L3 assoc: 16
Switch at instruction count:1
src/sim/simulate.cc:194: info: Entering event queue @ 25337984014000.  Starting simulation...
src/sim/power_state.cc:105: warn: PowerState: Already in the requested power state, request ignored
Switched CPUS @ tick 25337984015500
switching cpus
Switch at instruction count:50000000
src/sim/simulate.cc:194: info: Entering event queue @ 25337984015500.  Starting simulation...
[DSB @ 100000 calls] bc=8 isBypassOn=false| real=0 virt=6236 notrack=93763 | touchRes=5662(eff=0,ineff=5662) resetRes=22(ineff=0,eff=22) | bc++=5662 bc--=22 inv=0
[DSB @ 200000 calls] bc=8 isBypassOn=false| real=0 virt=12537 notrack=187462 | touchRes=11559(eff=0,ineff=11559) resetRes=22(ineff=0,eff=22) | bc++=11559 bc--=22 inv=12
[DSB @ 300000 calls] bc=8 isBypassOn=false| real=0 virt=18724 notrack=281275 | touchRes=17355(eff=0,ineff=17355) resetRes=22(ineff=0,eff=22) | bc++=17355 bc--=22 inv=13
[DSB @ 400000 calls] bc=8 isBypassOn=false| real=0 virt=24930 notrack=375069 | touchRes=23162(eff=0,ineff=23162) resetRes=22(ineff=0,eff=22) | bc++=23162 bc--=22 inv=13
[DSB @ 500000 calls] bc=8 isBypassOn=false| real=0 virt=31246 notrack=468753 | touchRes=29198(eff=0,ineff=29198) resetRes=22(ineff=0,eff=22) | bc++=29198 bc--=22 inv=14
src/sim/simulate.cc:194: info: Entering event queue @ 25488037102000.  Starting simulation...
Switching CPUS @ tick 25488037102000
Simulation ends instruction count:250000000
switching cpus
**** REAL SIMULATION ****
src/sim/simulate.cc:194: info: Entering event queue @ 25488037334500.  Starting simulation...
[DSB @ 600000 calls] bc=8 isBypassOn=false| real=0 virt=37589 notrack=562410 | touchRes=35124(eff=0,ineff=35124) resetRes=78(ineff=0,eff=78) | bc++=35124 bc--=78 inv=14
[DSB @ 700000 calls] bc=8 isBypassOn=false| real=0 virt=43801 notrack=656198 | touchRes=40942(eff=0,ineff=40942) resetRes=78(ineff=0,eff=78) | bc++=40942 bc--=78 inv=20
[DSB @ 800000 calls] bc=8 isBypassOn=false| real=0 virt=50247 notrack=749752 | touchRes=46978(eff=0,ineff=46978) resetRes=78(ineff=0,eff=78) | bc++=46978 bc--=78 inv=20
[DSB @ 900000 calls] bc=8 isBypassOn=false| real=0 virt=56503 notrack=843496 | touchRes=52845(eff=0,ineff=52845) resetRes=78(ineff=0,eff=78) | bc++=52845 bc--=78 inv=20
[DSB @ 1000000 calls] bc=8 isBypassOn=false| real=0 virt=62806 notrack=937193 | touchRes=58796(eff=0,ineff=58796) resetRes=78(ineff=0,eff=78) | bc++=58796 bc--=78 inv=21
