warn: The `get_runtime_isa` function is deprecated. Please migrate away from using this function.
warn: The se.py script is deprecated. It will be removed in future releases of  gem5.
warn: The `get_runtime_isa` function is deprecated. Please migrate away from using this function.
Global frequency set at 1000000000000 ticks per second
src/base/statistics.hh:279: warn: One of the stats is a legacy stat. Legacy stat is a stat that does not belong to any statistics::Group. Legacy stat is deprecated.
src/base/remote_gdb.cc:418: warn: Sockets disabled, not accepting gdb connections
src/sim/process.cc:396: warn: Checkpoints for pipes, device drivers and sockets do not work.
gem5 Simulator System.  https://www.gem5.org
gem5 is copyrighted software; use the --copyright option for details.

gem5 version 23.0.0.1
gem5 compiled Apr  6 2026 01:50:35
gem5 started Apr  7 2026 08:42:55
gem5 executing on b49ce2a326be, pid 69079
command line: /opt/gem5/build/X86/gem5.opt --outdir=/workspace/results_l3/4MB/policy0Config1/omnetpp /workspace/configs/run_spec_l3.py --rp-type=DSBRP --l3-size=4MB --l3-assoc=16 --cpu-type=DerivO3CPU --cmd=./omnetpp_s_base.gem5-x86 '--options=-c General -r 0' --mem-size=8GB --maxinst=250000000 --caches --l2cache --l1d_size=32kB --l1i_size=32kB --l1d_assoc=8 --l1i_assoc=8 --l2_size=256kB --l2_assoc=8 --checkpoint-restore=1 --checkpoint-dir=/workspace/checkpoints/omnetpp/m5out --restore-with-cpu=AtomicSimpleCPU --standard-switch=1 --warmup-insts=50000000 --dsb-enable-bypass=true --dsb-enable-aging=false --dsb-bypass-counter=6 --dsb-virtual-bypass-counter=4 --dsb-random-promotion=0 --dsb-minimum-bypass-counter=8

info: Standard input is not a terminal, disabling listeners.
Replacement policy: DSBRP
L1I size: 32kB, assoc: 8
L1D size: 32kB, assoc: 8
L2 size: 256kB, assoc: 8
L3 size: 4MB, L3 assoc: 16
Switch at instruction count:1
src/sim/simulate.cc:194: info: Entering event queue @ 27633443439000.  Starting simulation...
src/sim/power_state.cc:105: warn: PowerState: Already in the requested power state, request ignored
Switched CPUS @ tick 27633443440000
switching cpus
Switch at instruction count:50000000
src/sim/simulate.cc:194: info: Entering event queue @ 27633443440000.  Starting simulation...
[DSB @ 100000 calls] bc=8 isBypassOn=true| real=132 virt=6260 notrack=93607 | touchRes=4486(eff=39,ineff=4447) resetRes=382(ineff=31,eff=351) | bc++=4478 bc--=390 inv=1072
[DSB @ 200000 calls] bc=7 isBypassOn=true| real=12118 virt=11801 notrack=176080 | touchRes=9115(eff=2804,ineff=6311) resetRes=2798(ineff=1684,eff=1114) | bc++=7995 bc--=3918 inv=7925
[DSB @ 300000 calls] bc=8 isBypassOn=true| real=19222 virt=17622 notrack=263155 | touchRes=12714(eff=4407,ineff=8307) resetRes=4611(ineff=2690,eff=1921) | bc++=10997 bc--=6328 inv=13144
[DSB @ 400000 calls] bc=8 isBypassOn=false| real=28424 virt=23322 notrack=348253 | touchRes=16931(eff=6612,ineff=10319) resetRes=6829(ineff=4125,eff=2704) | bc++=14444 bc--=9316 inv=19001
[DSB @ 500000 calls] bc=8 isBypassOn=false| real=32185 virt=29340 notrack=438474 | touchRes=19918(eff=7495,ineff=12423) resetRes=8120(ineff=4630,eff=3490) | bc++=17053 bc--=10985 inv=23460
src/sim/simulate.cc:194: info: Entering event queue @ 27783089878500.  Starting simulation...
Switching CPUS @ tick 27783089878500
Simulation ends instruction count:250000000
switching cpus
**** REAL SIMULATION ****
src/sim/simulate.cc:194: info: Entering event queue @ 27783090441000.  Starting simulation...
[DSB @ 600000 calls] bc=8 isBypassOn=false| real=38402 virt=35301 notrack=526296 | touchRes=23533(eff=8953,ineff=14580) resetRes=9903(ineff=5569,eff=4334) | bc++=20149 bc--=13287 inv=28471
[DSB @ 700000 calls] bc=0 isBypassOn=true| real=42012 virt=41283 notrack=616704 | touchRes=26464(eff=9700,ineff=16764) resetRes=11148(ineff=5990,eff=5158) | bc++=22754 bc--=14858 inv=32429
[DSB @ 800000 calls] bc=5 isBypassOn=true| real=46191 virt=47216 notrack=706592 | touchRes=29652(eff=10764,ineff=18888) resetRes=12631(ineff=6689,eff=5942) | bc++=25577 bc--=16706 inv=37126
[DSB @ 900000 calls] bc=8 isBypassOn=false| real=51935 virt=53306 notrack=794758 | touchRes=33062(eff=12124,ineff=20938) resetRes=14291(ineff=7523,eff=6768) | bc++=28461 bc--=18892 inv=42303
[DSB @ 1000000 calls] bc=7 isBypassOn=true| real=60678 virt=58978 notrack=880343 | touchRes=37019(eff=14079,ineff=22940) resetRes=16232(ineff=8713,eff=7519) | bc++=31653 bc--=21598 inv=48331
[DSB @ 1100000 calls] bc=8 isBypassOn=false| real=68954 virt=64600 notrack=966445 | touchRes=40820(eff=15937,ineff=24883) resetRes=18255(ineff=9976,eff=8279) | bc++=34859 bc--=24216 inv=54074
[DSB @ 1200000 calls] bc=8 isBypassOn=true| real=69209 virt=70858 notrack=1059932 | touchRes=43222(eff=16009,ineff=27213) resetRes=19067(ineff=10009,eff=9058) | bc++=37222 bc--=25067 inv=57182
[DSB @ 1300000 calls] bc=6 isBypassOn=true| real=72424 virt=76880 notrack=1150695 | touchRes=46167(eff=16751,ineff=29416) resetRes=20361(ineff=10446,eff=9915) | bc++=39862 bc--=26666 inv=61176
[DSB @ 1400000 calls] bc=1 isBypassOn=true| real=76408 virt=82819 notrack=1240772 | touchRes=49228(eff=17594,ineff=31634) resetRes=21661(ineff=10947,eff=10714) | bc++=42581 bc--=28308 inv=65232
[DSB @ 1500000 calls] bc=8 isBypassOn=false| real=79097 virt=88855 notrack=1332047 | touchRes=52089(eff=18304,ineff=33785) resetRes=23011(ineff=11463,eff=11548) | bc++=45248 bc--=29852 inv=69381
[DSB @ 1600000 calls] bc=8 isBypassOn=false| real=82471 virt=94838 notrack=1422690 | touchRes=55078(eff=19127,ineff=35951) resetRes=24304(ineff=11907,eff=12397) | bc++=47858 bc--=31524 inv=73442
[DSB @ 1700000 calls] bc=8 isBypassOn=false| real=91770 virt=100545 notrack=1507684 | touchRes=59167(eff=21226,ineff=37941) resetRes=26261(ineff=13141,eff=13120) | bc++=51082 bc--=34346 inv=79720
[DSB @ 1800000 calls] bc=7 isBypassOn=true| real=92085 virt=106794 notrack=1601120 | touchRes=61438(eff=21328,ineff=40110) resetRes=27156(ineff=13179,eff=13977) | bc++=53289 bc--=35305 inv=82960
[DSB @ 1900000 calls] bc=8 isBypassOn=false| real=98210 virt=112591 notrack=1689198 | touchRes=64851(eff=22712,ineff=42139) resetRes=28757(ineff=13979,eff=14778) | bc++=56118 bc--=37490 inv=88095
[DSB @ 2000000 calls] bc=8 isBypassOn=false| real=107151 virt=118358 notrack=1774490 | touchRes=68994(eff=24849,ineff=44145) resetRes=30819(ineff=15240,eff=15579) | bc++=59385 bc--=40428 inv=94093
[DSB @ 2100000 calls] bc=6 isBypassOn=true| real=110169 virt=124402 notrack=1865428 | touchRes=71848(eff=25557,ineff=46291) resetRes=32062(ineff=15649,eff=16413) | bc++=61940 bc--=41970 inv=98198
[DSB @ 2200000 calls] bc=8 isBypassOn=false| real=118645 virt=130085 notrack=1951269 | touchRes=75868(eff=27484,ineff=48384) resetRes=33996(ineff=16844,eff=17152) | bc++=65228 bc--=44636 inv=103959
[DSB @ 2300000 calls] bc=8 isBypassOn=true| real=124625 virt=135951 notrack=2039423 | touchRes=79264(eff=28761,ineff=50503) resetRes=35684(ineff=17709,eff=17975) | bc++=68212 bc--=46736 inv=109048
[DSB @ 2400000 calls] bc=8 isBypassOn=true| real=133277 virt=141641 notrack=2125081 | touchRes=83241(eff=30745,ineff=52496) resetRes=37742(ineff=18972,eff=18770) | bc++=71468 bc--=49515 inv=114824
[DSB @ 2500000 calls] bc=8 isBypassOn=true| real=136349 virt=147676 notrack=2215974 | touchRes=86097(eff=31427,ineff=54670) resetRes=38986(ineff=19396,eff=19590) | bc++=74066 bc--=51017 inv=119049
[DSB @ 2600000 calls] bc=8 isBypassOn=true| real=145017 virt=153291 notrack=2301691 | touchRes=89955(eff=33325,ineff=56630) resetRes=41002(ineff=20672,eff=20330) | bc++=77302 bc--=53655 inv=125061
[DSB @ 2700000 calls] bc=8 isBypassOn=true| real=145418 virt=159642 notrack=2394939 | touchRes=92402(eff=33440,ineff=58962) resetRes=41951(ineff=20735,eff=21216) | bc++=79697 bc--=54656 inv=128234
[DSB @ 2800000 calls] bc=8 isBypassOn=false| real=148357 virt=165813 notrack=2485829 | touchRes=95328(eff=34123,ineff=61205) resetRes=43167(ineff=21127,eff=22040) | bc++=82332 bc--=56163 inv=132215
[DSB @ 2900000 calls] bc=8 isBypassOn=true| real=157131 virt=171528 notrack=2571340 | touchRes=99394(eff=36098,ineff=63296) resetRes=45199(ineff=22377,eff=22822) | bc++=85673 bc--=58920 inv=138098
[DSB @ 3000000 calls] bc=8 isBypassOn=true| real=157430 virt=177741 notrack=2664828 | touchRes=101800(eff=36185,ineff=65615) resetRes=46043(ineff=22416,eff=23627) | bc++=88031 bc--=59812 inv=141187
[DSB @ 3100000 calls] bc=8 isBypassOn=false| real=160201 virt=183875 notrack=2755923 | touchRes=104696(eff=36864,ineff=67832) resetRes=47262(ineff=22829,eff=24433) | bc++=90661 bc--=61297 inv=144911
[DSB @ 3200000 calls] bc=8 isBypassOn=false| real=163475 virt=189945 notrack=2846579 | touchRes=107740(eff=37636,ineff=70104) resetRes=48589(ineff=23347,eff=25242) | bc++=93451 bc--=62878 inv=149221
[DSB @ 3300000 calls] bc=8 isBypassOn=false| real=163882 virt=196070 notrack=2940047 | touchRes=110113(eff=37748,ineff=72365) resetRes=49505(ineff=23412,eff=26093) | bc++=95777 bc--=63841 inv=152232
Exiting @ tick 28027803762000 because a thread reached the max instruction count
