warn: The `get_runtime_isa` function is deprecated. Please migrate away from using this function.
warn: The se.py script is deprecated. It will be removed in future releases of  gem5.
warn: The `get_runtime_isa` function is deprecated. Please migrate away from using this function.
Global frequency set at 1000000000000 ticks per second
src/mem/dram_interface.cc:690: warn: DRAM device capacity (8192 Mbytes) does not match the address range assigned (16384 Mbytes)
src/base/statistics.hh:279: warn: One of the stats is a legacy stat. Legacy stat is a stat that does not belong to any statistics::Group. Legacy stat is deprecated.
src/base/remote_gdb.cc:418: warn: Sockets disabled, not accepting gdb connections
src/sim/process.cc:396: warn: Checkpoints for pipes, device drivers and sockets do not work.
gem5 Simulator System.  https://www.gem5.org
gem5 is copyrighted software; use the --copyright option for details.

gem5 version 23.0.0.1
gem5 compiled Apr  6 2026 01:50:35
gem5 started Apr  6 2026 08:03:52
gem5 executing on b49ce2a326be, pid 159053
command line: /opt/gem5/build/X86/gem5.opt --outdir=/workspace/results_l3/1MB/policy1Config2/roms /workspace/configs/run_spec_l3.py --rp-type=DSBRP --l3-size=1MB --l3-assoc=16 --cpu-type=DerivO3CPU --cmd=./sroms_base.gem5-x86 --options= --mem-size=16GB --maxinst=250000000 --caches --l2cache --l1d_size=32kB --l1i_size=32kB --l1d_assoc=8 --l1i_assoc=8 --l2_size=256kB --l2_assoc=8 --checkpoint-restore=1 --checkpoint-dir=/workspace/checkpoints/roms/m5out --restore-with-cpu=AtomicSimpleCPU --standard-switch=1 --warmup-insts=50000000 --input=ocean_benchmark3.in --dsb-enable-bypass=true --dsb-enable-aging=true --dsb-bypass-counter=6 --dsb-virtual-bypass-counter=3 --dsb-random-promotion=0 --dsb-minimum-bypass-counter=12

info: Standard input is not a terminal, disabling listeners.
Replacement policy: DSBRP
L1I size: 32kB, assoc: 8
L1D size: 32kB, assoc: 8
L2 size: 256kB, assoc: 8
L3 size: 1MB, L3 assoc: 16
Switch at instruction count:1
src/sim/simulate.cc:194: info: Entering event queue @ 26962283379000.  Starting simulation...
src/sim/power_state.cc:105: warn: PowerState: Already in the requested power state, request ignored
Switched CPUS @ tick 26962283380500
switching cpus
Switch at instruction count:50000000
src/sim/simulate.cc:194: info: Entering event queue @ 26962283380500.  Starting simulation...
[DSB @ 100000 calls] bc=12 isBypassOn=false| real=27 virt=12439 notrack=87533 | touchRes=7029(eff=15,ineff=7014) resetRes=515(ineff=3,eff=512) | bc++=7017 bc--=527 inv=11
[DSB @ 200000 calls] bc=12 isBypassOn=false| real=34 virt=24878 notrack=175087 | touchRes=14149(eff=16,ineff=14133) resetRes=1038(ineff=3,eff=1035) | bc++=14136 bc--=1051 inv=62
[DSB @ 300000 calls] bc=12 isBypassOn=false| real=45 virt=37285 notrack=262669 | touchRes=21177(eff=18,ineff=21159) resetRes=1793(ineff=3,eff=1790) | bc++=21162 bc--=1808 inv=152
[DSB @ 400000 calls] bc=12 isBypassOn=false| real=56 virt=49773 notrack=350170 | touchRes=28326(eff=19,ineff=28307) resetRes=2409(ineff=5,eff=2404) | bc++=28312 bc--=2423 inv=217
[DSB @ 500000 calls] bc=12 isBypassOn=false| real=59 virt=62352 notrack=437588 | touchRes=35456(eff=19,ineff=35437) resetRes=2976(ineff=5,eff=2971) | bc++=35442 bc--=2990 inv=317
src/sim/simulate.cc:194: info: Entering event queue @ 27130859221500.  Starting simulation...
Switching CPUS @ tick 27130859221500
Simulation ends instruction count:250000000
switching cpus
**** REAL SIMULATION ****
src/sim/simulate.cc:194: info: Entering event queue @ 27130859332750.  Starting simulation...
[DSB @ 600000 calls] bc=12 isBypassOn=false| real=59 virt=74771 notrack=525169 | touchRes=42689(eff=19,ineff=42670) resetRes=3529(ineff=5,eff=3524) | bc++=42675 bc--=3543 inv=398
[DSB @ 700000 calls] bc=12 isBypassOn=false| real=61 virt=87115 notrack=612823 | touchRes=49783(eff=20,ineff=49763) resetRes=4018(ineff=5,eff=4013) | bc++=49768 bc--=4033 inv=466
[DSB @ 800000 calls] bc=12 isBypassOn=false| real=359 virt=99615 notrack=700025 | touchRes=56891(eff=68,ineff=56823) resetRes=4599(ineff=7,eff=4592) | bc++=56830 bc--=4660 inv=804
[DSB @ 900000 calls] bc=12 isBypassOn=false| real=366 virt=111929 notrack=787704 | touchRes=64013(eff=69,ineff=63944) resetRes=5249(ineff=7,eff=5242) | bc++=63951 bc--=5311 inv=902
[DSB @ 1000000 calls] bc=12 isBypassOn=false| real=368 virt=124614 notrack=875017 | touchRes=71109(eff=69,ineff=71040) resetRes=5875(ineff=7,eff=5868) | bc++=71047 bc--=5937 inv=985
[DSB @ 1100000 calls] bc=12 isBypassOn=false| real=378 virt=137368 notrack=962253 | touchRes=78380(eff=71,ineff=78309) resetRes=6467(ineff=7,eff=6460) | bc++=78316 bc--=6531 inv=1053
[DSB @ 1200000 calls] bc=12 isBypassOn=false| real=395 virt=149590 notrack=1050014 | touchRes=85439(eff=71,ineff=85368) resetRes=7047(ineff=7,eff=7040) | bc++=85375 bc--=7111 inv=1147
[DSB @ 1300000 calls] bc=12 isBypassOn=false| real=397 virt=162087 notrack=1137515 | touchRes=92796(eff=71,ineff=92725) resetRes=7566(ineff=7,eff=7559) | bc++=92732 bc--=7630 inv=1210
[DSB @ 1400000 calls] bc=12 isBypassOn=false| real=403 virt=174610 notrack=1224986 | touchRes=100037(eff=71,ineff=99966) resetRes=8133(ineff=7,eff=8126) | bc++=99973 bc--=8197 inv=1296
[DSB @ 1500000 calls] bc=12 isBypassOn=false| real=404 virt=187047 notrack=1312548 | touchRes=107290(eff=71,ineff=107219) resetRes=8599(ineff=7,eff=8592) | bc++=107226 bc--=8663 inv=1351
[DSB @ 1600000 calls] bc=12 isBypassOn=false| real=418 virt=199556 notrack=1400025 | touchRes=114386(eff=73,ineff=114313) resetRes=9381(ineff=7,eff=9374) | bc++=114320 bc--=9447 inv=1436
[DSB @ 1700000 calls] bc=12 isBypassOn=true| real=423 virt=212196 notrack=1487380 | touchRes=121602(eff=74,ineff=121528) resetRes=9837(ineff=7,eff=9830) | bc++=121535 bc--=9904 inv=1522
[DSB @ 1800000 calls] bc=12 isBypassOn=false| real=432 virt=224606 notrack=1574961 | touchRes=128585(eff=75,ineff=128510) resetRes=10705(ineff=8,eff=10697) | bc++=128518 bc--=10772 inv=1621
[DSB @ 1900000 calls] bc=12 isBypassOn=false| real=438 virt=236874 notrack=1662687 | touchRes=135852(eff=75,ineff=135777) resetRes=11138(ineff=8,eff=11130) | bc++=135785 bc--=11205 inv=1687
[DSB @ 2000000 calls] bc=12 isBypassOn=false| real=446 virt=249501 notrack=1750052 | touchRes=143106(eff=75,ineff=143031) resetRes=11658(ineff=8,eff=11650) | bc++=143039 bc--=11725 inv=1765
[DSB @ 2100000 calls] bc=12 isBypassOn=false| real=454 virt=261916 notrack=1837629 | touchRes=150256(eff=75,ineff=150181) resetRes=12263(ineff=9,eff=12254) | bc++=150190 bc--=12329 inv=1886
[DSB @ 2200000 calls] bc=12 isBypassOn=false| real=459 virt=274471 notrack=1925069 | touchRes=157471(eff=77,ineff=157394) resetRes=12767(ineff=9,eff=12758) | bc++=157403 bc--=12835 inv=1963
[DSB @ 2300000 calls] bc=12 isBypassOn=false| real=473 virt=286807 notrack=2012719 | touchRes=164608(eff=81,ineff=164527) resetRes=13533(ineff=9,eff=13524) | bc++=164536 bc--=13605 inv=2045
[DSB @ 2400000 calls] bc=12 isBypassOn=false| real=475 virt=299346 notrack=2100178 | touchRes=171832(eff=81,ineff=171751) resetRes=14031(ineff=9,eff=14022) | bc++=171760 bc--=14103 inv=2102
[DSB @ 2500000 calls] bc=12 isBypassOn=false| real=499 virt=311856 notrack=2187644 | touchRes=178960(eff=83,ineff=178877) resetRes=14772(ineff=9,eff=14763) | bc++=178886 bc--=14846 inv=2201
[DSB @ 2600000 calls] bc=12 isBypassOn=false| real=500 virt=324231 notrack=2275268 | touchRes=186087(eff=84,ineff=186003) resetRes=15341(ineff=9,eff=15332) | bc++=186012 bc--=15416 inv=2258
[DSB @ 2700000 calls] bc=12 isBypassOn=false| real=503 virt=336831 notrack=2362665 | touchRes=193341(eff=84,ineff=193257) resetRes=15839(ineff=9,eff=15830) | bc++=193266 bc--=15914 inv=2354
[DSB @ 2800000 calls] bc=12 isBypassOn=false| real=503 virt=349472 notrack=2450024 | touchRes=200571(eff=84,ineff=200487) resetRes=16347(ineff=9,eff=16338) | bc++=200496 bc--=16422 inv=2425
[DSB @ 2900000 calls] bc=11 isBypassOn=true| real=511 virt=361817 notrack=2537671 | touchRes=207769(eff=84,ineff=207685) resetRes=16834(ineff=9,eff=16825) | bc++=207694 bc--=16909 inv=2508
[DSB @ 3000000 calls] bc=12 isBypassOn=false| real=522 virt=374452 notrack=2625025 | touchRes=215065(eff=84,ineff=214981) resetRes=17414(ineff=9,eff=17405) | bc++=214990 bc--=17489 inv=2596
[DSB @ 3100000 calls] bc=12 isBypassOn=false| real=528 virt=387010 notrack=2712461 | touchRes=222338(eff=84,ineff=222254) resetRes=18022(ineff=9,eff=18013) | bc++=222263 bc--=18097 inv=2702
[DSB @ 3200000 calls] bc=12 isBypassOn=false| real=531 virt=399659 notrack=2799809 | touchRes=229559(eff=84,ineff=229475) resetRes=18544(ineff=9,eff=18535) | bc++=229484 bc--=18619 inv=2794
[DSB @ 3300000 calls] bc=12 isBypassOn=false| real=534 virt=412076 notrack=2887389 | touchRes=236682(eff=84,ineff=236598) resetRes=19146(ineff=9,eff=19137) | bc++=236607 bc--=19221 inv=2888
Exiting @ tick 27356621947500 because a thread reached the max instruction count
