warn: The `get_runtime_isa` function is deprecated. Please migrate away from using this function.
warn: The se.py script is deprecated. It will be removed in future releases of  gem5.
warn: The `get_runtime_isa` function is deprecated. Please migrate away from using this function.
Global frequency set at 1000000000000 ticks per second
src/base/statistics.hh:279: warn: One of the stats is a legacy stat. Legacy stat is a stat that does not belong to any statistics::Group. Legacy stat is deprecated.
src/base/remote_gdb.cc:418: warn: Sockets disabled, not accepting gdb connections
src/sim/process.cc:396: warn: Checkpoints for pipes, device drivers and sockets do not work.
gem5 Simulator System.  https://www.gem5.org
gem5 is copyrighted software; use the --copyright option for details.

gem5 version 23.0.0.1
gem5 compiled Apr  6 2026 01:50:35
gem5 started Apr  6 2026 08:03:52
gem5 executing on b49ce2a326be, pid 159052
command line: /opt/gem5/build/X86/gem5.opt --outdir=/workspace/results_l3/1MB/policy1Config2/pop2 /workspace/configs/run_spec_l3.py --rp-type=DSBRP --l3-size=1MB --l3-assoc=16 --cpu-type=DerivO3CPU --cmd=./speed_pop2_base.gem5-x86 --options= --mem-size=8GB --maxinst=250000000 --caches --l2cache --l1d_size=32kB --l1i_size=32kB --l1d_assoc=8 --l1i_assoc=8 --l2_size=256kB --l2_assoc=8 --checkpoint-restore=1 --checkpoint-dir=/workspace/checkpoints/pop2/m5out --restore-with-cpu=AtomicSimpleCPU --standard-switch=1 --warmup-insts=50000000 --dsb-enable-bypass=true --dsb-enable-aging=true --dsb-bypass-counter=6 --dsb-virtual-bypass-counter=3 --dsb-random-promotion=0 --dsb-minimum-bypass-counter=12

info: Standard input is not a terminal, disabling listeners.
Replacement policy: DSBRP
L1I size: 32kB, assoc: 8
L1D size: 32kB, assoc: 8
L2 size: 256kB, assoc: 8
L3 size: 1MB, L3 assoc: 16
Switch at instruction count:1
src/sim/simulate.cc:194: info: Entering event queue @ 28375057083500.  Starting simulation...
src/sim/simulate.cc:194: info: Entering event queue @ 28375057085000.  Starting simulation...
src/sim/power_state.cc:105: warn: PowerState: Already in the requested power state, request ignored
Switched CPUS @ tick 28375057085000
switching cpus
Switch at instruction count:50000000
src/sim/simulate.cc:194: info: Entering event queue @ 28375057086000.  Starting simulation...
[DSB @ 100000 calls] bc=12 isBypassOn=false| real=39 virt=12429 notrack=87531 | touchRes=8909(eff=11,ineff=8898) resetRes=464(ineff=3,eff=461) | bc++=8901 bc--=472 inv=184
src/sim/simulate.cc:194: info: Entering event queue @ 28515331426000.  Starting simulation...
Switching CPUS @ tick 28515331426000
Simulation ends instruction count:250000000
switching cpus
**** REAL SIMULATION ****
src/sim/simulate.cc:194: info: Entering event queue @ 28515331609750.  Starting simulation...
[DSB @ 200000 calls] bc=12 isBypassOn=false| real=57 virt=24809 notrack=175133 | touchRes=18249(eff=13,ineff=18236) resetRes=1395(ineff=9,eff=1386) | bc++=18245 bc--=1399 inv=650
[DSB @ 300000 calls] bc=12 isBypassOn=false| real=116 virt=37348 notrack=262535 | touchRes=27744(eff=17,ineff=27727) resetRes=2401(ineff=22,eff=2379) | bc++=27749 bc--=2396 inv=1160
[DSB @ 400000 calls] bc=12 isBypassOn=false| real=120 virt=49756 notrack=350123 | touchRes=35709(eff=17,ineff=35692) resetRes=2715(ineff=22,eff=2693) | bc++=35714 bc--=2710 inv=1293
[DSB @ 500000 calls] bc=12 isBypassOn=false| real=10853 virt=60854 notrack=428292 | touchRes=42665(eff=241,ineff=42424) resetRes=3134(ineff=69,eff=3065) | bc++=42493 bc--=3306 inv=2710
[DSB @ 600000 calls] bc=12 isBypassOn=false| real=10853 virt=73474 notrack=515672 | touchRes=51025(eff=241,ineff=50784) resetRes=3176(ineff=69,eff=3107) | bc++=50853 bc--=3348 inv=2767
[DSB @ 700000 calls] bc=12 isBypassOn=false| real=10912 virt=85845 notrack=603242 | touchRes=58631(eff=242,ineff=58389) resetRes=3620(ineff=69,eff=3551) | bc++=58458 bc--=3793 inv=2846
[DSB @ 800000 calls] bc=12 isBypassOn=false| real=10914 virt=98335 notrack=690750 | touchRes=66467(eff=242,ineff=66225) resetRes=3779(ineff=69,eff=3710) | bc++=66294 bc--=3952 inv=2880
[DSB @ 900000 calls] bc=12 isBypassOn=false| real=10931 virt=110784 notrack=778284 | touchRes=75994(eff=246,ineff=75748) resetRes=4690(ineff=69,eff=4621) | bc++=75817 bc--=4867 inv=3275
[DSB @ 1000000 calls] bc=12 isBypassOn=false| real=10939 virt=123204 notrack=865856 | touchRes=85357(eff=247,ineff=85110) resetRes=5651(ineff=69,eff=5582) | bc++=85179 bc--=5829 inv=3760
[DSB @ 1100000 calls] bc=12 isBypassOn=false| real=10951 virt=135706 notrack=953342 | touchRes=94189(eff=249,ineff=93940) resetRes=6331(ineff=69,eff=6262) | bc++=94009 bc--=6511 inv=4142
[DSB @ 1200000 calls] bc=12 isBypassOn=false| real=10953 virt=148158 notrack=1040888 | touchRes=102142(eff=249,ineff=101893) resetRes=6603(ineff=69,eff=6534) | bc++=101962 bc--=6783 inv=4256
[DSB @ 1300000 calls] bc=12 isBypassOn=false| real=23370 virt=159003 notrack=1117626 | touchRes=109591(eff=720,ineff=108871) resetRes=7020(ineff=115,eff=6905) | bc++=108986 bc--=7625 inv=5326
Exiting @ tick 28688789936000 because a thread reached the max instruction count
