warn: The `get_runtime_isa` function is deprecated. Please migrate away from using this function.
warn: The se.py script is deprecated. It will be removed in future releases of  gem5.
warn: The `get_runtime_isa` function is deprecated. Please migrate away from using this function.
Global frequency set at 1000000000000 ticks per second
src/base/statistics.hh:279: warn: One of the stats is a legacy stat. Legacy stat is a stat that does not belong to any statistics::Group. Legacy stat is deprecated.
src/base/remote_gdb.cc:418: warn: Sockets disabled, not accepting gdb connections
src/sim/process.cc:396: warn: Checkpoints for pipes, device drivers and sockets do not work.
gem5 Simulator System.  https://www.gem5.org
gem5 is copyrighted software; use the --copyright option for details.

gem5 version 23.0.0.1
gem5 compiled Apr  6 2026 01:50:35
gem5 started Apr  6 2026 11:52:08
gem5 executing on b49ce2a326be, pid 199510
command line: /opt/gem5/build/X86/gem5.opt --outdir=/workspace/results_l3/2MB/policy0Config2/cam4 /workspace/configs/run_spec_l3.py --rp-type=DSBRP --l3-size=2MB --l3-assoc=16 --cpu-type=DerivO3CPU --cmd=./cam4_s_base.gem5-x86 --options= --mem-size=8GB --maxinst=250000000 --caches --l2cache --l1d_size=32kB --l1i_size=32kB --l1d_assoc=8 --l1i_assoc=8 --l2_size=256kB --l2_assoc=8 --checkpoint-restore=1 --checkpoint-dir=/workspace/checkpoints/cam4/m5out --restore-with-cpu=AtomicSimpleCPU --standard-switch=1 --warmup-insts=50000000 --dsb-enable-bypass=true --dsb-enable-aging=false --dsb-bypass-counter=6 --dsb-virtual-bypass-counter=3 --dsb-random-promotion=0 --dsb-minimum-bypass-counter=12

info: Standard input is not a terminal, disabling listeners.
Replacement policy: DSBRP
L1I size: 32kB, assoc: 8
L1D size: 32kB, assoc: 8
L2 size: 256kB, assoc: 8
L3 size: 2MB, L3 assoc: 16
Switch at instruction count:1
src/sim/simulate.cc:194: info: Entering event queue @ 25337984014000.  Starting simulation...
src/sim/power_state.cc:105: warn: PowerState: Already in the requested power state, request ignored
Switched CPUS @ tick 25337984015500
switching cpus
Switch at instruction count:50000000
src/sim/simulate.cc:194: info: Entering event queue @ 25337984015500.  Starting simulation...
[DSB @ 100000 calls] bc=0 isBypassOn=true| real=25942 virt=9249 notrack=64808 | touchRes=7704(eff=3442,ineff=4262) resetRes=1169(ineff=788,eff=381) | bc++=5050 bc--=3823 inv=6300
[DSB @ 200000 calls] bc=0 isBypassOn=true| real=125942 virt=9249 notrack=64808 | touchRes=7718(eff=3456,ineff=4262) resetRes=1169(ineff=788,eff=381) | bc++=5050 bc--=3837 inv=6300
[DSB @ 300000 calls] bc=0 isBypassOn=true| real=225942 virt=9249 notrack=64808 | touchRes=7718(eff=3456,ineff=4262) resetRes=1169(ineff=788,eff=381) | bc++=5050 bc--=3837 inv=6300
[DSB @ 400000 calls] bc=0 isBypassOn=true| real=325942 virt=9249 notrack=64808 | touchRes=7718(eff=3456,ineff=4262) resetRes=1169(ineff=788,eff=381) | bc++=5050 bc--=3837 inv=6300
[DSB @ 500000 calls] bc=0 isBypassOn=true| real=425942 virt=9249 notrack=64808 | touchRes=7718(eff=3456,ineff=4262) resetRes=1169(ineff=788,eff=381) | bc++=5050 bc--=3837 inv=6300
[DSB @ 600000 calls] bc=0 isBypassOn=true| real=525942 virt=9249 notrack=64808 | touchRes=7718(eff=3456,ineff=4262) resetRes=1169(ineff=788,eff=381) | bc++=5050 bc--=3837 inv=6300
[DSB @ 700000 calls] bc=0 isBypassOn=true| real=625942 virt=9249 notrack=64808 | touchRes=7720(eff=3458,ineff=4262) resetRes=1169(ineff=788,eff=381) | bc++=5050 bc--=3839 inv=6300
[DSB @ 800000 calls] bc=0 isBypassOn=true| real=725942 virt=9249 notrack=64808 | touchRes=7720(eff=3458,ineff=4262) resetRes=1169(ineff=788,eff=381) | bc++=5050 bc--=3839 inv=6300
[DSB @ 900000 calls] bc=0 isBypassOn=true| real=825942 virt=9249 notrack=64808 | touchRes=7720(eff=3458,ineff=4262) resetRes=1169(ineff=788,eff=381) | bc++=5050 bc--=3839 inv=6300
src/sim/simulate.cc:194: info: Entering event queue @ 25489661610500.  Starting simulation...
Switching CPUS @ tick 25489661610500
Simulation ends instruction count:250000000
switching cpus
**** REAL SIMULATION ****
src/sim/simulate.cc:194: info: Entering event queue @ 25489661946750.  Starting simulation...
[DSB @ 1000000 calls] bc=10 isBypassOn=true| real=898679 virt=12706 notrack=88614 | touchRes=10158(eff=5705,ineff=4453) resetRes=2830(ineff=2275,eff=555) | bc++=6728 bc--=6260 inv=13050
[DSB @ 1100000 calls] bc=0 isBypassOn=true| real=930516 virt=21142 notrack=148341 | touchRes=17310(eff=10858,ineff=6452) resetRes=7250(ineff=5760,eff=1490) | bc++=12212 bc--=12348 inv=22583
[DSB @ 1200000 calls] bc=0 isBypassOn=true| real=1004402 virt=24368 notrack=171229 | touchRes=19846(eff=12930,ineff=6916) resetRes=8020(ineff=6377,eff=1643) | bc++=13293 bc--=14573 inv=27436
[DSB @ 1300000 calls] bc=0 isBypassOn=true| real=1104402 virt=24368 notrack=171229 | touchRes=19852(eff=12936,ineff=6916) resetRes=8020(ineff=6377,eff=1643) | bc++=13293 bc--=14579 inv=27436
[DSB @ 1400000 calls] bc=0 isBypassOn=true| real=1204402 virt=24368 notrack=171229 | touchRes=19904(eff=12988,ineff=6916) resetRes=8020(ineff=6377,eff=1643) | bc++=13293 bc--=14631 inv=27436
[DSB @ 1500000 calls] bc=0 isBypassOn=true| real=1304402 virt=24368 notrack=171229 | touchRes=19942(eff=13026,ineff=6916) resetRes=8020(ineff=6377,eff=1643) | bc++=13293 bc--=14669 inv=27436
[DSB @ 1600000 calls] bc=0 isBypassOn=true| real=1404402 virt=24368 notrack=171229 | touchRes=19942(eff=13026,ineff=6916) resetRes=8020(ineff=6377,eff=1643) | bc++=13293 bc--=14669 inv=27436
[DSB @ 1700000 calls] bc=0 isBypassOn=true| real=1504402 virt=24368 notrack=171229 | touchRes=19963(eff=13047,ineff=6916) resetRes=8020(ineff=6377,eff=1643) | bc++=13293 bc--=14690 inv=27436
[DSB @ 1800000 calls] bc=0 isBypassOn=true| real=1604402 virt=24368 notrack=171229 | touchRes=20312(eff=13396,ineff=6916) resetRes=8020(ineff=6377,eff=1643) | bc++=13293 bc--=15039 inv=27436
[DSB @ 1900000 calls] bc=0 isBypassOn=true| real=1704402 virt=24368 notrack=171229 | touchRes=20312(eff=13396,ineff=6916) resetRes=8020(ineff=6377,eff=1643) | bc++=13293 bc--=15039 inv=27436
[DSB @ 2000000 calls] bc=0 isBypassOn=true| real=1794624 virt=25584 notrack=179791 | touchRes=22168(eff=15211,ineff=6957) resetRes=8999(ineff=7312,eff=1687) | bc++=14269 bc--=16898 inv=30439
[DSB @ 2100000 calls] bc=0 isBypassOn=true| real=1813357 virt=35889 notrack=250753 | touchRes=27558(eff=18330,ineff=9228) resetRes=12464(ineff=9860,eff=2604) | bc++=19088 bc--=20934 inv=39955
[DSB @ 2200000 calls] bc=0 isBypassOn=true| real=1885507 virt=39331 notrack=275161 | touchRes=30929(eff=21216,ineff=9713) resetRes=13251(ineff=10482,eff=2769) | bc++=20195 bc--=23985 inv=44945
[DSB @ 2300000 calls] bc=0 isBypassOn=true| real=1985507 virt=39331 notrack=275161 | touchRes=30933(eff=21220,ineff=9713) resetRes=13251(ineff=10482,eff=2769) | bc++=20195 bc--=23989 inv=44945
[DSB @ 2400000 calls] bc=0 isBypassOn=true| real=2085507 virt=39331 notrack=275161 | touchRes=30948(eff=21235,ineff=9713) resetRes=13251(ineff=10482,eff=2769) | bc++=20195 bc--=24004 inv=44945
[DSB @ 2500000 calls] bc=0 isBypassOn=true| real=2185507 virt=39331 notrack=275161 | touchRes=30969(eff=21256,ineff=9713) resetRes=13251(ineff=10482,eff=2769) | bc++=20195 bc--=24025 inv=44945
[DSB @ 2600000 calls] bc=0 isBypassOn=true| real=2285507 virt=39331 notrack=275161 | touchRes=30970(eff=21257,ineff=9713) resetRes=13251(ineff=10482,eff=2769) | bc++=20195 bc--=24026 inv=44945
[DSB @ 2700000 calls] bc=0 isBypassOn=true| real=2385507 virt=39331 notrack=275161 | touchRes=30993(eff=21280,ineff=9713) resetRes=13251(ineff=10482,eff=2769) | bc++=20195 bc--=24049 inv=44945
[DSB @ 2800000 calls] bc=0 isBypassOn=true| real=2485507 virt=39331 notrack=275161 | touchRes=31467(eff=21754,ineff=9713) resetRes=13251(ineff=10482,eff=2769) | bc++=20195 bc--=24523 inv=44945
[DSB @ 2900000 calls] bc=0 isBypassOn=true| real=2585507 virt=39331 notrack=275161 | touchRes=31467(eff=21754,ineff=9713) resetRes=13251(ineff=10482,eff=2769) | bc++=20195 bc--=24523 inv=44945
[DSB @ 3000000 calls] bc=12 isBypassOn=false| real=2679092 virt=40109 notrack=280798 | touchRes=33433(eff=23685,ineff=9748) resetRes=14094(ineff=11294,eff=2800) | bc++=21042 bc--=26485 inv=47475
Exiting @ tick 25668459037000 because a thread reached the max instruction count
