warn: The `get_runtime_isa` function is deprecated. Please migrate away from using this function.
warn: The se.py script is deprecated. It will be removed in future releases of  gem5.
warn: The `get_runtime_isa` function is deprecated. Please migrate away from using this function.
Global frequency set at 1000000000000 ticks per second
src/base/statistics.hh:279: warn: One of the stats is a legacy stat. Legacy stat is a stat that does not belong to any statistics::Group. Legacy stat is deprecated.
src/base/remote_gdb.cc:418: warn: Sockets disabled, not accepting gdb connections
src/sim/process.cc:396: warn: Checkpoints for pipes, device drivers and sockets do not work.
gem5 Simulator System.  https://www.gem5.org
gem5 is copyrighted software; use the --copyright option for details.

gem5 version 23.0.0.1
gem5 compiled Apr  6 2026 01:50:35
gem5 started Apr  7 2026 13:01:22
gem5 executing on b49ce2a326be, pid 110469
command line: /opt/gem5/build/X86/gem5.opt --outdir=/workspace/results_l3/4MB/policy1Config1/wrf /workspace/configs/run_spec_l3.py --rp-type=DSBRP --l3-size=4MB --l3-assoc=16 --cpu-type=DerivO3CPU --cmd=./wrf_s_base.gem5-x86 --options= --mem-size=8GB --maxinst=250000000 --caches --l2cache --l1d_size=32kB --l1i_size=32kB --l1d_assoc=8 --l1i_assoc=8 --l2_size=256kB --l2_assoc=8 --checkpoint-restore=1 --checkpoint-dir=/workspace/checkpoints/wrf/m5out --restore-with-cpu=AtomicSimpleCPU --standard-switch=1 --warmup-insts=50000000 --dsb-enable-bypass=false --dsb-enable-aging=true --dsb-bypass-counter=6 --dsb-virtual-bypass-counter=4 --dsb-random-promotion=0 --dsb-minimum-bypass-counter=8

info: Standard input is not a terminal, disabling listeners.
Replacement policy: DSBRP
L1I size: 32kB, assoc: 8
L1D size: 32kB, assoc: 8
L2 size: 256kB, assoc: 8
L3 size: 4MB, L3 assoc: 16
Switch at instruction count:1
src/sim/simulate.cc:194: info: Entering event queue @ 27778733914000.  Starting simulation...
src/sim/simulate.cc:194: info: Entering event queue @ 27778733915500.  Starting simulation...
src/sim/power_state.cc:105: warn: PowerState: Already in the requested power state, request ignored
Switched CPUS @ tick 27778733915500
switching cpus
Switch at instruction count:50000000
src/sim/simulate.cc:194: info: Entering event queue @ 27778733916000.  Starting simulation...
[DSB @ 100000 calls] bc=8 isBypassOn=false| real=0 virt=6236 notrack=93763 | touchRes=5831(eff=0,ineff=5831) resetRes=7(ineff=0,eff=7) | bc++=5831 bc--=7 inv=3
[DSB @ 200000 calls] bc=8 isBypassOn=false| real=0 virt=12537 notrack=187462 | touchRes=11706(eff=0,ineff=11706) resetRes=27(ineff=0,eff=27) | bc++=11706 bc--=27 inv=25
[DSB @ 300000 calls] bc=8 isBypassOn=false| real=0 virt=18724 notrack=281275 | touchRes=17580(eff=0,ineff=17580) resetRes=36(ineff=0,eff=36) | bc++=17580 bc--=36 inv=34
[DSB @ 400000 calls] bc=8 isBypassOn=false| real=0 virt=24930 notrack=375069 | touchRes=23733(eff=0,ineff=23733) resetRes=60(ineff=0,eff=60) | bc++=23733 bc--=60 inv=59
src/sim/simulate.cc:194: info: Entering event queue @ 27929705753500.  Starting simulation...
Switching CPUS @ tick 27929705753500
Simulation ends instruction count:250000000
switching cpus
**** REAL SIMULATION ****
src/sim/simulate.cc:194: info: Entering event queue @ 27929705898500.  Starting simulation...
[DSB @ 500000 calls] bc=8 isBypassOn=false| real=0 virt=31123 notrack=468876 | touchRes=29555(eff=0,ineff=29555) resetRes=97(ineff=0,eff=97) | bc++=29555 bc--=97 inv=117
[DSB @ 600000 calls] bc=8 isBypassOn=false| real=0 virt=37452 notrack=562547 | touchRes=35535(eff=0,ineff=35535) resetRes=165(ineff=0,eff=165) | bc++=35535 bc--=165 inv=173
[DSB @ 700000 calls] bc=8 isBypassOn=false| real=0 virt=43777 notrack=656222 | touchRes=41635(eff=0,ineff=41635) resetRes=207(ineff=0,eff=207) | bc++=41635 bc--=207 inv=218
[DSB @ 800000 calls] bc=8 isBypassOn=false| real=0 virt=50092 notrack=749907 | touchRes=47763(eff=0,ineff=47763) resetRes=236(ineff=0,eff=236) | bc++=47763 bc--=236 inv=252
[DSB @ 900000 calls] bc=7 isBypassOn=true| real=0 virt=56306 notrack=843693 | touchRes=53469(eff=0,ineff=53469) resetRes=338(ineff=0,eff=338) | bc++=53469 bc--=338 inv=309
[DSB @ 1000000 calls] bc=8 isBypassOn=false| real=0 virt=62566 notrack=937433 | touchRes=59449(eff=0,ineff=59449) resetRes=378(ineff=0,eff=378) | bc++=59449 bc--=378 inv=393
[DSB @ 1100000 calls] bc=8 isBypassOn=false| real=0 virt=68702 notrack=1031297 | touchRes=65096(eff=0,ineff=65096) resetRes=480(ineff=0,eff=480) | bc++=65096 bc--=480 inv=453
[DSB @ 1200000 calls] bc=8 isBypassOn=false| real=0 virt=74882 notrack=1125117 | touchRes=71215(eff=0,ineff=71215) resetRes=480(ineff=0,eff=480) | bc++=71215 bc--=480 inv=476
