warn: The `get_runtime_isa` function is deprecated. Please migrate away from using this function.
warn: The se.py script is deprecated. It will be removed in future releases of  gem5.
warn: The `get_runtime_isa` function is deprecated. Please migrate away from using this function.
Global frequency set at 1000000000000 ticks per second
src/base/statistics.hh:279: warn: One of the stats is a legacy stat. Legacy stat is a stat that does not belong to any statistics::Group. Legacy stat is deprecated.
src/base/remote_gdb.cc:418: warn: Sockets disabled, not accepting gdb connections
src/sim/process.cc:396: warn: Checkpoints for pipes, device drivers and sockets do not work.
gem5 Simulator System.  https://www.gem5.org
gem5 is copyrighted software; use the --copyright option for details.

gem5 version 23.0.0.1
gem5 compiled Apr  6 2026 01:50:35
gem5 started Apr  6 2026 04:25:50
gem5 executing on b49ce2a326be, pid 122991
command line: /opt/gem5/build/X86/gem5.opt --outdir=/workspace/results_l3/1MB/policy0Config3/xalancbmk /workspace/configs/run_spec_l3.py --rp-type=DSBRP --l3-size=1MB --l3-assoc=16 --cpu-type=DerivO3CPU --cmd=./xalancbmk_s_base.gem5-x86 '--options=-v t5.xml xalanc.xsl' --mem-size=8GB --maxinst=250000000 --caches --l2cache --l1d_size=32kB --l1i_size=32kB --l1d_assoc=8 --l1i_assoc=8 --l2_size=256kB --l2_assoc=8 --checkpoint-restore=1 --checkpoint-dir=/workspace/checkpoints/xalancbmk/m5out --restore-with-cpu=AtomicSimpleCPU --standard-switch=1 --warmup-insts=50000000 --dsb-enable-bypass=true --dsb-enable-aging=false --dsb-bypass-counter=3 --dsb-virtual-bypass-counter=3 --dsb-random-promotion=0 --dsb-minimum-bypass-counter=12

info: Standard input is not a terminal, disabling listeners.
Replacement policy: DSBRP
L1I size: 32kB, assoc: 8
L1D size: 32kB, assoc: 8
L2 size: 256kB, assoc: 8
L3 size: 1MB, L3 assoc: 16
Switch at instruction count:1
src/sim/simulate.cc:194: info: Entering event queue @ 27962974663500.  Starting simulation...
src/sim/simulate.cc:194: info: Entering event queue @ 27962974665000.  Starting simulation...
src/sim/power_state.cc:105: warn: PowerState: Already in the requested power state, request ignored
Switched CPUS @ tick 27962974665000
switching cpus
Switch at instruction count:50000000
src/sim/simulate.cc:194: info: Entering event queue @ 27962974666000.  Starting simulation...
[DSB @ 100000 calls] bc=12 isBypassOn=false| real=347 virt=12364 notrack=87288 | touchRes=1834(eff=149,ineff=1685) resetRes=80(ineff=0,eff=80) | bc++=1685 bc--=229 inv=8094
[DSB @ 200000 calls] bc=0 isBypassOn=true| real=63383 virt=16958 notrack=119658 | touchRes=6073(eff=4042,ineff=2031) resetRes=141(ineff=6,eff=135) | bc++=2037 bc--=4177 inv=13505
[DSB @ 300000 calls] bc=0 isBypassOn=true| real=161864 virt=17131 notrack=121004 | touchRes=10809(eff=8770,ineff=2039) resetRes=147(ineff=12,eff=135) | bc++=2051 bc--=8905 inv=14613
[DSB @ 400000 calls] bc=0 isBypassOn=true| real=261864 virt=17131 notrack=121004 | touchRes=15882(eff=13843,ineff=2039) resetRes=147(ineff=12,eff=135) | bc++=2051 bc--=13978 inv=14613
[DSB @ 500000 calls] bc=12 isBypassOn=false| real=294567 virt=25587 notrack=179845 | touchRes=19205(eff=16595,ineff=2610) resetRes=337(ineff=107,eff=230) | bc++=2717 bc--=16825 inv=22957
[DSB @ 600000 calls] bc=0 isBypassOn=true| real=316978 virt=35313 notrack=247708 | touchRes=24565(eff=21136,ineff=3429) resetRes=533(ineff=133,eff=400) | bc++=3562 bc--=21536 inv=31061
[DSB @ 700000 calls] bc=1 isBypassOn=true| real=400305 virt=37409 notrack=262285 | touchRes=37802(eff=34280,ineff=3522) resetRes=615(ineff=178,eff=437) | bc++=3700 bc--=34717 inv=34013
src/sim/simulate.cc:194: info: Entering event queue @ 28136097087500.  Starting simulation...
Switching CPUS @ tick 28136097087500
Simulation ends instruction count:250000000
switching cpus
**** REAL SIMULATION ****
src/sim/simulate.cc:194: info: Entering event queue @ 28136097280000.  Starting simulation...
[DSB @ 800000 calls] bc=12 isBypassOn=false| real=442187 virt=44709 notrack=313103 | touchRes=44656(eff=40678,ineff=3978) resetRes=853(ineff=323,eff=530) | bc++=4301 bc--=41208 inv=41995
[DSB @ 900000 calls] bc=0 isBypassOn=true| real=457189 virt=55293 notrack=387517 | touchRes=47196(eff=42244,ineff=4952) resetRes=964(ineff=323,eff=641) | bc++=5275 bc--=42885 inv=50415
[DSB @ 1000000 calls] bc=12 isBypassOn=false| real=510112 virt=61092 notrack=428795 | touchRes=49372(eff=44325,ineff=5047) resetRes=986(ineff=337,eff=649) | bc++=5384 bc--=44974 inv=56857
[DSB @ 1100000 calls] bc=12 isBypassOn=false| real=565947 virt=66497 notrack=467555 | touchRes=54238(eff=48921,ineff=5317) resetRes=1174(ineff=466,eff=708) | bc++=5783 bc--=49629 inv=62758
[DSB @ 1200000 calls] bc=0 isBypassOn=true| real=658851 virt=67387 notrack=473761 | touchRes=62335(eff=56925,ineff=5410) resetRes=1239(ineff=493,eff=746) | bc++=5903 bc--=57671 inv=63889
[DSB @ 1300000 calls] bc=12 isBypassOn=false| real=731542 virt=70809 notrack=497648 | touchRes=70705(eff=65021,ineff=5684) resetRes=1411(ineff=622,eff=789) | bc++=6306 bc--=65810 inv=67265
[DSB @ 1400000 calls] bc=0 isBypassOn=true| real=743755 virt=81692 notrack=574552 | touchRes=73537(eff=66868,ineff=6669) resetRes=1566(ineff=624,eff=942) | bc++=7293 bc--=67810 inv=76064
[DSB @ 1500000 calls] bc=0 isBypassOn=true| real=840229 virt=82143 notrack=577627 | touchRes=91053(eff=84358,ineff=6695) resetRes=1760(ineff=804,eff=956) | bc++=7499 bc--=85314 inv=77127
[DSB @ 1600000 calls] bc=12 isBypassOn=false| real=897425 virt=87422 notrack=615152 | touchRes=99822(eff=92697,ineff=7125) resetRes=2090(ineff=1047,eff=1043) | bc++=8172 bc--=93740 inv=83024
[DSB @ 1700000 calls] bc=0 isBypassOn=true| real=956122 virt=92612 notrack=651265 | touchRes=109789(eff=102151,ineff=7638) resetRes=2267(ineff=1123,eff=1144) | bc++=8761 bc--=103295 inv=87567
[DSB @ 1800000 calls] bc=0 isBypassOn=true| real=1050159 virt=93349 notrack=656491 | touchRes=121078(eff=113437,ineff=7641) resetRes=2280(ineff=1133,eff=1147) | bc++=8774 bc--=114584 inv=89387
[DSB @ 1900000 calls] bc=9 isBypassOn=true| real=1055243 virt=105315 notrack=739441 | touchRes=121707(eff=113671,ineff=8036) resetRes=2348(ineff=1140,eff=1208) | bc++=9176 bc--=114879 inv=100429
[DSB @ 2000000 calls] bc=12 isBypassOn=false| real=1055251 virt=117798 notrack=826950 | touchRes=122389(eff=113671,ineff=8718) resetRes=2420(ineff=1140,eff=1280) | bc++=9858 bc--=114951 inv=110683
[DSB @ 2100000 calls] bc=0 isBypassOn=true| real=1094008 virt=125438 notrack=880553 | touchRes=126777(eff=117274,ineff=9503) resetRes=2516(ineff=1140,eff=1376) | bc++=10643 bc--=118650 inv=116624
[DSB @ 2200000 calls] bc=1 isBypassOn=true| real=1189748 virt=125981 notrack=884270 | touchRes=137611(eff=128073,ineff=9538) resetRes=2631(ineff=1239,eff=1392) | bc++=10777 bc--=129465 inv=117847
[DSB @ 2300000 calls] bc=8 isBypassOn=true| real=1283673 virt=126751 notrack=889575 | touchRes=142664(eff=133112,ineff=9552) resetRes=2678(ineff=1284,eff=1394) | bc++=10836 bc--=134506 inv=121333
[DSB @ 2400000 calls] bc=12 isBypassOn=true| real=1283722 virt=139243 notrack=977034 | touchRes=143689(eff=133125,ineff=10564) resetRes=2767(ineff=1285,eff=1482) | bc++=11849 bc--=134607 inv=131467
[DSB @ 2500000 calls] bc=12 isBypassOn=false| real=1283859 virt=151451 notrack=1064689 | touchRes=144361(eff=133146,ineff=11215) resetRes=2875(ineff=1285,eff=1590) | bc++=12500 bc--=134736 inv=141614
[DSB @ 2600000 calls] bc=12 isBypassOn=true| real=1283879 virt=163953 notrack=1152167 | touchRes=145244(eff=133148,ineff=12096) resetRes=2954(ineff=1285,eff=1669) | bc++=13381 bc--=134817 inv=151685
[DSB @ 2700000 calls] bc=12 isBypassOn=false| real=1283894 virt=176617 notrack=1239488 | touchRes=145875(eff=133150,ineff=12725) resetRes=3026(ineff=1285,eff=1741) | bc++=14010 bc--=134891 inv=162116
[DSB @ 2800000 calls] bc=0 isBypassOn=true| real=1318388 virt=184663 notrack=1296948 | touchRes=148197(eff=134968,ineff=13229) resetRes=3165(ineff=1349,eff=1816) | bc++=14578 bc--=136784 inv=169119
[DSB @ 2900000 calls] bc=12 isBypassOn=false| real=1350372 virt=193168 notrack=1356459 | touchRes=150856(eff=137007,ineff=13849) resetRes=3446(ineff=1555,eff=1891) | bc++=15404 bc--=138898 inv=177022
[DSB @ 3000000 calls] bc=0 isBypassOn=true| real=1353276 virt=205429 notrack=1441294 | touchRes=152005(eff=137489,ineff=14516) resetRes=3519(ineff=1555,eff=1964) | bc++=16071 bc--=139453 inv=187184
[DSB @ 3100000 calls] bc=12 isBypassOn=false| real=1400500 virt=211899 notrack=1487600 | touchRes=155415(eff=140642,ineff=14773) resetRes=3833(ineff=1830,eff=2003) | bc++=16603 bc--=142645 inv=194780
[DSB @ 3200000 calls] bc=12 isBypassOn=false| real=1400648 virt=224486 notrack=1574865 | touchRes=156217(eff=140652,ineff=15565) resetRes=3930(ineff=1830,eff=2100) | bc++=17395 bc--=142752 inv=205069
[DSB @ 3300000 calls] bc=12 isBypassOn=false| real=1400649 virt=237063 notrack=1662287 | touchRes=156710(eff=140652,ineff=16058) resetRes=3944(ineff=1830,eff=2114) | bc++=17888 bc--=142766 inv=215654
[DSB @ 3400000 calls] bc=0 isBypassOn=true| real=1485424 virt=238942 notrack=1675633 | touchRes=161312(eff=145081,ineff=16231) resetRes=4012(ineff=1874,eff=2138) | bc++=18105 bc--=147219 inv=218852
[DSB @ 3500000 calls] bc=0 isBypassOn=true| real=1581620 virt=239426 notrack=1678953 | touchRes=171495(eff=155184,ineff=16311) resetRes=4081(ineff=1929,eff=2152) | bc++=18240 bc--=157336 inv=220202
[DSB @ 3600000 calls] bc=0 isBypassOn=true| real=1630192 virt=245914 notrack=1723893 | touchRes=175172(eff=158467,ineff=16705) resetRes=4274(ineff=2062,eff=2212) | bc++=18767 bc--=160679 inv=226585
[DSB @ 3700000 calls] bc=0 isBypassOn=true| real=1726845 virt=246372 notrack=1726782 | touchRes=179509(eff=162730,ineff=16779) resetRes=4407(ineff=2166,eff=2241) | bc++=18945 bc--=164971 inv=227465
[DSB @ 3800000 calls] bc=0 isBypassOn=true| real=1742625 virt=256875 notrack=1800499 | touchRes=181145(eff=163922,ineff=17223) resetRes=4572(ineff=2273,eff=2299) | bc++=19496 bc--=166221 inv=237011
[DSB @ 3900000 calls] bc=12 isBypassOn=false| real=1768136 virt=266255 notrack=1865608 | touchRes=182689(eff=164883,ineff=17806) resetRes=4635(ineff=2315,eff=2320) | bc++=20121 bc--=167203 inv=246313
[DSB @ 4000000 calls] bc=12 isBypassOn=false| real=1768144 virt=278831 notrack=1953024 | touchRes=183386(eff=164883,ineff=18503) resetRes=4674(ineff=2315,eff=2359) | bc++=20818 bc--=167242 inv=256552
[DSB @ 4100000 calls] bc=12 isBypassOn=false| real=1768149 virt=291216 notrack=2040634 | touchRes=184290(eff=164884,ineff=19406) resetRes=4716(ineff=2315,eff=2401) | bc++=21721 bc--=167285 inv=266599
[DSB @ 4200000 calls] bc=0 isBypassOn=true| real=1854884 virt=292812 notrack=2052303 | touchRes=192491(eff=172962,ineff=19529) resetRes=4759(ineff=2337,eff=2422) | bc++=21866 bc--=175384 inv=269793
[DSB @ 4300000 calls] bc=0 isBypassOn=true| real=1953327 virt=292994 notrack=2053678 | touchRes=202745(eff=183189,ineff=19556) resetRes=4806(ineff=2373,eff=2433) | bc++=21929 bc--=185622 inv=270482
[DSB @ 4400000 calls] bc=0 isBypassOn=true| real=2025628 virt=296362 notrack=2078009 | touchRes=210545(eff=190665,ineff=19880) resetRes=5363(ineff=2845,eff=2518) | bc++=22725 bc--=193183 inv=274933
Exiting @ tick 28508202517000 because a thread reached the max instruction count
