warn: The `get_runtime_isa` function is deprecated. Please migrate away from using this function.
warn: The se.py script is deprecated. It will be removed in future releases of  gem5.
warn: The `get_runtime_isa` function is deprecated. Please migrate away from using this function.
Global frequency set at 1000000000000 ticks per second
src/base/statistics.hh:279: warn: One of the stats is a legacy stat. Legacy stat is a stat that does not belong to any statistics::Group. Legacy stat is deprecated.
src/base/remote_gdb.cc:418: warn: Sockets disabled, not accepting gdb connections
src/sim/process.cc:396: warn: Checkpoints for pipes, device drivers and sockets do not work.
gem5 Simulator System.  https://www.gem5.org
gem5 is copyrighted software; use the --copyright option for details.

gem5 version 23.0.0.1
gem5 compiled Apr  6 2026 01:50:35
gem5 started Apr  6 2026 10:53:07
gem5 executing on b49ce2a326be, pid 188751
command line: /opt/gem5/build/X86/gem5.opt --outdir=/workspace/results_l3/2MB/policy0Config2/mcf /workspace/configs/run_spec_l3.py --rp-type=DSBRP --l3-size=2MB --l3-assoc=16 --cpu-type=DerivO3CPU --cmd=./mcf_s_base.gem5-x86 --options=inp.in --mem-size=8GB --maxinst=250000000 --caches --l2cache --l1d_size=32kB --l1i_size=32kB --l1d_assoc=8 --l1i_assoc=8 --l2_size=256kB --l2_assoc=8 --checkpoint-restore=1 --checkpoint-dir=/workspace/checkpoints/mcf/m5out --restore-with-cpu=AtomicSimpleCPU --standard-switch=1 --warmup-insts=50000000 --dsb-enable-bypass=true --dsb-enable-aging=false --dsb-bypass-counter=6 --dsb-virtual-bypass-counter=3 --dsb-random-promotion=0 --dsb-minimum-bypass-counter=12

info: Standard input is not a terminal, disabling listeners.
Replacement policy: DSBRP
L1I size: 32kB, assoc: 8
L1D size: 32kB, assoc: 8
L2 size: 256kB, assoc: 8
L3 size: 2MB, L3 assoc: 16
Switch at instruction count:1
src/sim/simulate.cc:194: info: Entering event queue @ 24065090964500.  Starting simulation...
src/sim/simulate.cc:194: info: Entering event queue @ 24065090965500.  Starting simulation...
src/sim/power_state.cc:105: warn: PowerState: Already in the requested power state, request ignored
Switched CPUS @ tick 24065090965500
switching cpus
Switch at instruction count:50000000
src/sim/simulate.cc:194: info: Entering event queue @ 24065090966000.  Starting simulation...
[DSB @ 100000 calls] bc=12 isBypassOn=false| real=32 virt=12444 notrack=87523 | touchRes=6823(eff=18,ineff=6805) resetRes=130(ineff=8,eff=122) | bc++=6813 bc--=140 inv=4253
[DSB @ 200000 calls] bc=12 isBypassOn=false| real=38 virt=24922 notrack=175039 | touchRes=11967(eff=21,ineff=11946) resetRes=414(ineff=8,eff=406) | bc++=11954 bc--=427 inv=10418
[DSB @ 300000 calls] bc=12 isBypassOn=false| real=39 virt=37423 notrack=262537 | touchRes=17058(eff=21,ineff=17037) resetRes=658(ineff=8,eff=650) | bc++=17045 bc--=671 inv=16696
[DSB @ 400000 calls] bc=12 isBypassOn=false| real=40 virt=49823 notrack=350136 | touchRes=22199(eff=22,ineff=22177) resetRes=841(ineff=8,eff=833) | bc++=22185 bc--=855 inv=22873
src/sim/simulate.cc:194: info: Entering event queue @ 24222582245500.  Starting simulation...
Switching CPUS @ tick 24222582245500
Simulation ends instruction count:250000000
switching cpus
**** REAL SIMULATION ****
src/sim/simulate.cc:194: info: Entering event queue @ 24222582331750.  Starting simulation...
[DSB @ 500000 calls] bc=12 isBypassOn=false| real=41 virt=62334 notrack=437624 | touchRes=27367(eff=22,ineff=27345) resetRes=1001(ineff=8,eff=993) | bc++=27353 bc--=1015 inv=29143
[DSB @ 600000 calls] bc=12 isBypassOn=false| real=41 virt=74717 notrack=525241 | touchRes=32696(eff=22,ineff=32674) resetRes=1132(ineff=8,eff=1124) | bc++=32682 bc--=1146 inv=35242
[DSB @ 700000 calls] bc=12 isBypassOn=false| real=41 virt=87007 notrack=612951 | touchRes=37621(eff=22,ineff=37599) resetRes=1308(ineff=8,eff=1300) | bc++=37607 bc--=1322 inv=41545
[DSB @ 800000 calls] bc=12 isBypassOn=false| real=42 virt=99325 notrack=700632 | touchRes=42641(eff=22,ineff=42619) resetRes=1574(ineff=8,eff=1566) | bc++=42627 bc--=1588 inv=47732
[DSB @ 900000 calls] bc=12 isBypassOn=false| real=42 virt=111994 notrack=787963 | touchRes=47729(eff=22,ineff=47707) resetRes=1847(ineff=8,eff=1839) | bc++=47715 bc--=1861 inv=54126
[DSB @ 1000000 calls] bc=12 isBypassOn=false| real=42 virt=124293 notrack=875664 | touchRes=52759(eff=22,ineff=52737) resetRes=2025(ineff=8,eff=2017) | bc++=52745 bc--=2039 inv=60369
[DSB @ 1100000 calls] bc=12 isBypassOn=false| real=45 virt=136811 notrack=963143 | touchRes=57890(eff=24,ineff=57866) resetRes=2183(ineff=8,eff=2175) | bc++=57874 bc--=2199 inv=66690
[DSB @ 1200000 calls] bc=12 isBypassOn=false| real=45 virt=149454 notrack=1050500 | touchRes=63201(eff=24,ineff=63177) resetRes=2318(ineff=8,eff=2310) | bc++=63185 bc--=2334 inv=72985
[DSB @ 1300000 calls] bc=12 isBypassOn=false| real=46 virt=162008 notrack=1137945 | touchRes=68280(eff=24,ineff=68256) resetRes=2500(ineff=8,eff=2492) | bc++=68264 bc--=2516 inv=79382
[DSB @ 1400000 calls] bc=12 isBypassOn=false| real=47 virt=174545 notrack=1225407 | touchRes=73465(eff=24,ineff=73441) resetRes=2763(ineff=8,eff=2755) | bc++=73449 bc--=2779 inv=85573
[DSB @ 1500000 calls] bc=12 isBypassOn=false| real=49 virt=186898 notrack=1313052 | touchRes=78536(eff=25,ineff=78511) resetRes=3017(ineff=8,eff=3009) | bc++=78519 bc--=3034 inv=91717
[DSB @ 1600000 calls] bc=12 isBypassOn=false| real=49 virt=199384 notrack=1400566 | touchRes=83665(eff=25,ineff=83640) resetRes=3183(ineff=8,eff=3175) | bc++=83648 bc--=3200 inv=98019
[DSB @ 1700000 calls] bc=12 isBypassOn=false| real=52 virt=211819 notrack=1488128 | touchRes=88860(eff=27,ineff=88833) resetRes=3317(ineff=8,eff=3309) | bc++=88841 bc--=3336 inv=104279
[DSB @ 1800000 calls] bc=12 isBypassOn=false| real=52 virt=224343 notrack=1575604 | touchRes=94224(eff=27,ineff=94197) resetRes=3443(ineff=8,eff=3435) | bc++=94205 bc--=3462 inv=110421
[DSB @ 1900000 calls] bc=12 isBypassOn=false| real=53 virt=236799 notrack=1663147 | touchRes=99224(eff=27,ineff=99197) resetRes=3580(ineff=8,eff=3572) | bc++=99205 bc--=3599 inv=116832
[DSB @ 2000000 calls] bc=12 isBypassOn=false| real=53 virt=249363 notrack=1750583 | touchRes=104300(eff=27,ineff=104273) resetRes=3837(ineff=8,eff=3829) | bc++=104281 bc--=3856 inv=123199
[DSB @ 2100000 calls] bc=12 isBypassOn=false| real=54 virt=261936 notrack=1838009 | touchRes=109458(eff=28,ineff=109430) resetRes=4116(ineff=8,eff=4108) | bc++=109438 bc--=4136 inv=129406
[DSB @ 2200000 calls] bc=12 isBypassOn=false| real=54 virt=274626 notrack=1925319 | touchRes=114740(eff=28,ineff=114712) resetRes=4301(ineff=8,eff=4293) | bc++=114720 bc--=4321 inv=135698
[DSB @ 2300000 calls] bc=12 isBypassOn=false| real=55 virt=287197 notrack=2012747 | touchRes=120073(eff=28,ineff=120045) resetRes=4470(ineff=8,eff=4462) | bc++=120053 bc--=4490 inv=141916
[DSB @ 2400000 calls] bc=12 isBypassOn=false| real=55 virt=299868 notrack=2100076 | touchRes=125468(eff=28,ineff=125440) resetRes=4594(ineff=8,eff=4586) | bc++=125448 bc--=4614 inv=148141
Exiting @ tick 24433388589000 because a thread reached the max instruction count
