warn: The `get_runtime_isa` function is deprecated. Please migrate away from using this function.
warn: The se.py script is deprecated. It will be removed in future releases of  gem5.
warn: The `get_runtime_isa` function is deprecated. Please migrate away from using this function.
Global frequency set at 1000000000000 ticks per second
src/base/statistics.hh:279: warn: One of the stats is a legacy stat. Legacy stat is a stat that does not belong to any statistics::Group. Legacy stat is deprecated.
src/base/remote_gdb.cc:418: warn: Sockets disabled, not accepting gdb connections
src/sim/process.cc:396: warn: Checkpoints for pipes, device drivers and sockets do not work.
gem5 Simulator System.  https://www.gem5.org
gem5 is copyrighted software; use the --copyright option for details.

gem5 version 23.0.0.1
gem5 compiled Apr  6 2026 01:50:35
gem5 started Apr  7 2026 11:06:29
gem5 executing on b49ce2a326be, pid 91179
command line: /opt/gem5/build/X86/gem5.opt --outdir=/workspace/results_l3/4MB/policy0Config3/omnetpp /workspace/configs/run_spec_l3.py --rp-type=DSBRP --l3-size=4MB --l3-assoc=16 --cpu-type=DerivO3CPU --cmd=./omnetpp_s_base.gem5-x86 '--options=-c General -r 0' --mem-size=8GB --maxinst=250000000 --caches --l2cache --l1d_size=32kB --l1i_size=32kB --l1d_assoc=8 --l1i_assoc=8 --l2_size=256kB --l2_assoc=8 --checkpoint-restore=1 --checkpoint-dir=/workspace/checkpoints/omnetpp/m5out --restore-with-cpu=AtomicSimpleCPU --standard-switch=1 --warmup-insts=50000000 --dsb-enable-bypass=true --dsb-enable-aging=false --dsb-bypass-counter=3 --dsb-virtual-bypass-counter=3 --dsb-random-promotion=0 --dsb-minimum-bypass-counter=12

info: Standard input is not a terminal, disabling listeners.
Replacement policy: DSBRP
L1I size: 32kB, assoc: 8
L1D size: 32kB, assoc: 8
L2 size: 256kB, assoc: 8
L3 size: 4MB, L3 assoc: 16
Switch at instruction count:1
src/sim/simulate.cc:194: info: Entering event queue @ 27633443439000.  Starting simulation...
src/sim/power_state.cc:105: warn: PowerState: Already in the requested power state, request ignored
Switched CPUS @ tick 27633443440000
switching cpus
Switch at instruction count:50000000
src/sim/simulate.cc:194: info: Entering event queue @ 27633443440000.  Starting simulation...
[DSB @ 100000 calls] bc=12 isBypassOn=false| real=419 virt=12419 notrack=87161 | touchRes=8745(eff=164,ineff=8581) resetRes=831(ineff=145,eff=686) | bc++=8726 bc--=850 inv=1902
[DSB @ 200000 calls] bc=12 isBypassOn=true| real=447 virt=24822 notrack=174730 | touchRes=12909(eff=174,ineff=12735) resetRes=2643(ineff=146,eff=2497) | bc++=12881 bc--=2671 inv=7485
[DSB @ 300000 calls] bc=12 isBypassOn=true| real=463 virt=37321 notrack=262215 | touchRes=17298(eff=179,ineff=17119) resetRes=4497(ineff=147,eff=4350) | bc++=17266 bc--=4529 inv=12968
[DSB @ 400000 calls] bc=12 isBypassOn=true| real=488 virt=49839 notrack=349672 | touchRes=21588(eff=189,ineff=21399) resetRes=6357(ineff=149,eff=6208) | bc++=21548 bc--=6397 inv=18576
[DSB @ 500000 calls] bc=12 isBypassOn=false| real=512 virt=62392 notrack=437095 | touchRes=25914(eff=195,ineff=25719) resetRes=8157(ineff=151,eff=8006) | bc++=25870 bc--=8201 inv=24207
src/sim/simulate.cc:194: info: Entering event queue @ 27783127827500.  Starting simulation...
Switching CPUS @ tick 27783127827500
Simulation ends instruction count:250000000
switching cpus
**** REAL SIMULATION ****
src/sim/simulate.cc:194: info: Entering event queue @ 27783128247500.  Starting simulation...
[DSB @ 600000 calls] bc=12 isBypassOn=false| real=537 virt=75017 notrack=524445 | touchRes=30364(eff=207,ineff=30157) resetRes=9901(ineff=152,eff=9749) | bc++=30309 bc--=9956 inv=29868
[DSB @ 700000 calls] bc=11 isBypassOn=true| real=556 virt=87664 notrack=611779 | touchRes=35061(eff=210,ineff=34851) resetRes=11627(ineff=158,eff=11469) | bc++=35009 bc--=11679 inv=35286
[DSB @ 800000 calls] bc=11 isBypassOn=true| real=584 virt=100104 notrack=699311 | touchRes=39662(eff=224,ineff=39438) resetRes=13293(ineff=160,eff=13133) | bc++=39598 bc--=13357 inv=40716
[DSB @ 900000 calls] bc=12 isBypassOn=false| real=602 virt=112483 notrack=786914 | touchRes=44077(eff=231,ineff=43846) resetRes=15003(ineff=163,eff=14840) | bc++=44009 bc--=15071 inv=46202
[DSB @ 1000000 calls] bc=11 isBypassOn=true| real=622 virt=124906 notrack=874471 | touchRes=48562(eff=235,ineff=48327) resetRes=16755(ineff=164,eff=16591) | bc++=48491 bc--=16826 inv=51623
[DSB @ 1100000 calls] bc=11 isBypassOn=true| real=639 virt=137367 notrack=961993 | touchRes=53050(eff=239,ineff=52811) resetRes=18502(ineff=165,eff=18337) | bc++=52976 bc--=18576 inv=57139
[DSB @ 1200000 calls] bc=11 isBypassOn=true| real=666 virt=149828 notrack=1049505 | touchRes=57586(eff=244,ineff=57342) resetRes=20226(ineff=167,eff=20059) | bc++=57509 bc--=20303 inv=62618
[DSB @ 1300000 calls] bc=11 isBypassOn=true| real=695 virt=162202 notrack=1137102 | touchRes=62079(eff=255,ineff=61824) resetRes=21984(ineff=171,eff=21813) | bc++=61995 bc--=22068 inv=67985
[DSB @ 1400000 calls] bc=12 isBypassOn=false| real=717 virt=174758 notrack=1224524 | touchRes=66560(eff=260,ineff=66300) resetRes=23674(ineff=176,eff=23498) | bc++=66476 bc--=23758 inv=73527
[DSB @ 1500000 calls] bc=12 isBypassOn=false| real=946 virt=186952 notrack=1312101 | touchRes=71104(eff=332,ineff=70772) resetRes=25377(ineff=202,eff=25175) | bc++=70974 bc--=25507 inv=78925
[DSB @ 1600000 calls] bc=12 isBypassOn=false| real=980 virt=199645 notrack=1399374 | touchRes=75690(eff=341,ineff=75349) resetRes=27168(ineff=208,eff=26960) | bc++=75557 bc--=27301 inv=84494
[DSB @ 1700000 calls] bc=12 isBypassOn=true| real=3800 virt=211734 notrack=1484465 | touchRes=80520(eff=999,ineff=79521) resetRes=29247(ineff=557,eff=28690) | bc++=80078 bc--=29689 inv=90810
[DSB @ 1800000 calls] bc=12 isBypassOn=false| real=3816 virt=224400 notrack=1571783 | touchRes=85046(eff=1003,ineff=84043) resetRes=30967(ineff=558,eff=30409) | bc++=84601 bc--=31412 inv=96447
[DSB @ 1900000 calls] bc=11 isBypassOn=true| real=3828 virt=236837 notrack=1659334 | touchRes=89579(eff=1007,ineff=88572) resetRes=32618(ineff=560,eff=32058) | bc++=89132 bc--=33065 inv=101869
[DSB @ 2000000 calls] bc=12 isBypassOn=false| real=3845 virt=249309 notrack=1746845 | touchRes=94076(eff=1012,ineff=93064) resetRes=34393(ineff=563,eff=33830) | bc++=93627 bc--=34842 inv=107342
[DSB @ 2100000 calls] bc=12 isBypassOn=false| real=3881 virt=261760 notrack=1834358 | touchRes=98558(eff=1022,ineff=97536) resetRes=36168(ineff=565,eff=35603) | bc++=98101 bc--=36625 inv=112799
[DSB @ 2200000 calls] bc=12 isBypassOn=false| real=3899 virt=274229 notrack=1921871 | touchRes=103059(eff=1028,ineff=102031) resetRes=37886(ineff=568,eff=37318) | bc++=102599 bc--=38346 inv=118285
[DSB @ 2300000 calls] bc=12 isBypassOn=false| real=3959 virt=286663 notrack=2009377 | touchRes=107466(eff=1049,ineff=106417) resetRes=39620(ineff=573,eff=39047) | bc++=106990 bc--=40096 inv=123829
[DSB @ 2400000 calls] bc=12 isBypassOn=false| real=3983 virt=299150 notrack=2096866 | touchRes=112035(eff=1055,ineff=110980) resetRes=41392(ineff=576,eff=40816) | bc++=111556 bc--=41871 inv=129254
[DSB @ 2500000 calls] bc=11 isBypassOn=true| real=3998 virt=311680 notrack=2184321 | touchRes=116662(eff=1062,ineff=115600) resetRes=43088(ineff=578,eff=42510) | bc++=116178 bc--=43572 inv=134675
[DSB @ 2600000 calls] bc=12 isBypassOn=true| real=4033 virt=324157 notrack=2271809 | touchRes=121243(eff=1081,ineff=120162) resetRes=44807(ineff=579,eff=44228) | bc++=120741 bc--=45309 inv=140103
[DSB @ 2700000 calls] bc=12 isBypassOn=false| real=4053 virt=336733 notrack=2359213 | touchRes=125848(eff=1087,ineff=124761) resetRes=46477(ineff=580,eff=45897) | bc++=125341 bc--=46984 inv=145651
[DSB @ 2800000 calls] bc=12 isBypassOn=false| real=4076 virt=349298 notrack=2446625 | touchRes=130410(eff=1092,ineff=129318) resetRes=48143(ineff=582,eff=47561) | bc++=129900 bc--=48653 inv=151204
[DSB @ 2900000 calls] bc=12 isBypassOn=true| real=4106 virt=361841 notrack=2534052 | touchRes=135126(eff=1098,ineff=134028) resetRes=49883(ineff=586,eff=49297) | bc++=134614 bc--=50395 inv=156541
[DSB @ 3000000 calls] bc=12 isBypassOn=false| real=4145 virt=374259 notrack=2621595 | touchRes=139743(eff=1111,ineff=138632) resetRes=51603(ineff=588,eff=51015) | bc++=139220 bc--=52126 inv=161965
[DSB @ 3100000 calls] bc=12 isBypassOn=false| real=4161 virt=386702 notrack=2709136 | touchRes=144378(eff=1115,ineff=143263) resetRes=53308(ineff=589,eff=52719) | bc++=143852 bc--=53834 inv=167306
[DSB @ 3200000 calls] bc=12 isBypassOn=false| real=4184 virt=399225 notrack=2796590 | touchRes=148943(eff=1122,ineff=147821) resetRes=55027(ineff=592,eff=54435) | bc++=148413 bc--=55557 inv=172847
[DSB @ 3300000 calls] bc=12 isBypassOn=true| real=4196 virt=411784 notrack=2884019 | touchRes=153573(eff=1126,ineff=152447) resetRes=56729(ineff=592,eff=56137) | bc++=153039 bc--=57263 inv=178296
Exiting @ tick 28027804131000 because a thread reached the max instruction count
