warn: The `get_runtime_isa` function is deprecated. Please migrate away from using this function.
warn: The se.py script is deprecated. It will be removed in future releases of  gem5.
warn: The `get_runtime_isa` function is deprecated. Please migrate away from using this function.
Global frequency set at 1000000000000 ticks per second
src/base/statistics.hh:279: warn: One of the stats is a legacy stat. Legacy stat is a stat that does not belong to any statistics::Group. Legacy stat is deprecated.
src/base/remote_gdb.cc:418: warn: Sockets disabled, not accepting gdb connections
src/sim/process.cc:396: warn: Checkpoints for pipes, device drivers and sockets do not work.
gem5 Simulator System.  https://www.gem5.org
gem5 is copyrighted software; use the --copyright option for details.

gem5 version 23.0.0.1
gem5 compiled Apr  6 2026 01:50:35
gem5 started Apr  6 2026 16:22:41
gem5 executing on b49ce2a326be, pid 248965
command line: /opt/gem5/build/X86/gem5.opt --outdir=/workspace/results_l3/2MB/policy1Config3/lbm /workspace/configs/run_spec_l3.py --rp-type=DSBRP --l3-size=2MB --l3-assoc=16 --cpu-type=DerivO3CPU --cmd=./lbm_s_base.gem5-x86 '--options=2000 reference.dat 0 0 200_200_260_ldc.of' --mem-size=8GB --maxinst=250000000 --caches --l2cache --l1d_size=32kB --l1i_size=32kB --l1d_assoc=8 --l1i_assoc=8 --l2_size=256kB --l2_assoc=8 --checkpoint-restore=1 --checkpoint-dir=/workspace/checkpoints/lbm/m5out --restore-with-cpu=AtomicSimpleCPU --standard-switch=1 --warmup-insts=50000000 --dsb-enable-bypass=true --dsb-enable-aging=true --dsb-bypass-counter=3 --dsb-virtual-bypass-counter=3 --dsb-random-promotion=4 --dsb-minimum-bypass-counter=12

info: Standard input is not a terminal, disabling listeners.
Replacement policy: DSBRP
L1I size: 32kB, assoc: 8
L1D size: 32kB, assoc: 8
L2 size: 256kB, assoc: 8
L3 size: 2MB, L3 assoc: 16
Switch at instruction count:1
src/sim/simulate.cc:194: info: Entering event queue @ 25728322212500.  Starting simulation...
src/sim/simulate.cc:194: info: Entering event queue @ 25728322214000.  Starting simulation...
src/sim/power_state.cc:105: warn: PowerState: Already in the requested power state, request ignored
Switched CPUS @ tick 25728322214000
switching cpus
Switch at instruction count:50000000
src/sim/simulate.cc:194: info: Entering event queue @ 25728322215000.  Starting simulation...
[DSB @ 100000 calls] bc=12 isBypassOn=false| real=462 virt=12397 notrack=87140 | touchRes=10146(eff=145,ineff=10001) resetRes=207(ineff=207,eff=0) | bc++=10208 bc--=145 inv=0
[DSB @ 200000 calls] bc=12 isBypassOn=false| real=462 virt=24953 notrack=174584 | touchRes=20768(eff=145,ineff=20623) resetRes=207(ineff=207,eff=0) | bc++=20830 bc--=145 inv=0
[DSB @ 300000 calls] bc=12 isBypassOn=false| real=462 virt=37405 notrack=262132 | touchRes=31244(eff=145,ineff=31099) resetRes=207(ineff=207,eff=0) | bc++=31306 bc--=145 inv=0
[DSB @ 400000 calls] bc=12 isBypassOn=false| real=462 virt=50003 notrack=349534 | touchRes=41851(eff=145,ineff=41706) resetRes=207(ineff=207,eff=0) | bc++=41913 bc--=145 inv=0
[DSB @ 500000 calls] bc=12 isBypassOn=false| real=462 virt=62420 notrack=437117 | touchRes=52358(eff=145,ineff=52213) resetRes=207(ineff=207,eff=0) | bc++=52420 bc--=145 inv=0
[DSB @ 600000 calls] bc=12 isBypassOn=false| real=462 virt=74935 notrack=524602 | touchRes=62918(eff=145,ineff=62773) resetRes=207(ineff=207,eff=0) | bc++=62980 bc--=145 inv=0
[DSB @ 700000 calls] bc=12 isBypassOn=false| real=462 virt=87263 notrack=612274 | touchRes=73357(eff=145,ineff=73212) resetRes=207(ineff=207,eff=0) | bc++=73419 bc--=145 inv=0
[DSB @ 800000 calls] bc=12 isBypassOn=false| real=462 virt=99789 notrack=699748 | touchRes=83916(eff=145,ineff=83771) resetRes=207(ineff=207,eff=0) | bc++=83978 bc--=145 inv=0
[DSB @ 900000 calls] bc=12 isBypassOn=false| real=462 virt=112184 notrack=787353 | touchRes=94387(eff=145,ineff=94242) resetRes=207(ineff=207,eff=0) | bc++=94449 bc--=145 inv=0
[DSB @ 1000000 calls] bc=12 isBypassOn=false| real=462 virt=124691 notrack=874846 | touchRes=104935(eff=145,ineff=104790) resetRes=207(ineff=207,eff=0) | bc++=104997 bc--=145 inv=0
src/sim/simulate.cc:194: info: Entering event queue @ 25953224341500.  Starting simulation...
Switching CPUS @ tick 25953224341500
Simulation ends instruction count:250000000
switching cpus
**** REAL SIMULATION ****
src/sim/simulate.cc:194: info: Entering event queue @ 25953224470250.  Starting simulation...
[DSB @ 1100000 calls] bc=12 isBypassOn=false| real=462 virt=137223 notrack=962314 | touchRes=115464(eff=145,ineff=115319) resetRes=207(ineff=207,eff=0) | bc++=115526 bc--=145 inv=0
[DSB @ 1200000 calls] bc=12 isBypassOn=false| real=462 virt=149474 notrack=1050063 | touchRes=125859(eff=145,ineff=125714) resetRes=207(ineff=207,eff=0) | bc++=125921 bc--=145 inv=0
[DSB @ 1300000 calls] bc=12 isBypassOn=false| real=462 virt=161834 notrack=1137703 | touchRes=136292(eff=145,ineff=136147) resetRes=207(ineff=207,eff=0) | bc++=136354 bc--=145 inv=0
[DSB @ 1400000 calls] bc=12 isBypassOn=false| real=462 virt=174486 notrack=1225051 | touchRes=146965(eff=145,ineff=146820) resetRes=207(ineff=207,eff=0) | bc++=147027 bc--=145 inv=0
[DSB @ 1500000 calls] bc=12 isBypassOn=false| real=462 virt=186845 notrack=1312692 | touchRes=157450(eff=145,ineff=157305) resetRes=207(ineff=207,eff=0) | bc++=157512 bc--=145 inv=0
[DSB @ 1600000 calls] bc=12 isBypassOn=false| real=462 virt=199403 notrack=1400134 | touchRes=168032(eff=145,ineff=167887) resetRes=207(ineff=207,eff=0) | bc++=168094 bc--=145 inv=0
[DSB @ 1700000 calls] bc=12 isBypassOn=false| real=462 virt=211921 notrack=1487616 | touchRes=178575(eff=145,ineff=178430) resetRes=207(ineff=207,eff=0) | bc++=178637 bc--=145 inv=0
[DSB @ 1800000 calls] bc=12 isBypassOn=false| real=462 virt=224411 notrack=1575126 | touchRes=189106(eff=145,ineff=188961) resetRes=207(ineff=207,eff=0) | bc++=189168 bc--=145 inv=0
[DSB @ 1900000 calls] bc=12 isBypassOn=false| real=462 virt=236927 notrack=1662610 | touchRes=199605(eff=145,ineff=199460) resetRes=207(ineff=207,eff=0) | bc++=199667 bc--=145 inv=0
[DSB @ 2000000 calls] bc=12 isBypassOn=false| real=462 virt=249491 notrack=1750046 | touchRes=210186(eff=145,ineff=210041) resetRes=207(ineff=207,eff=0) | bc++=210248 bc--=145 inv=0
[DSB @ 2100000 calls] bc=12 isBypassOn=false| real=462 virt=261940 notrack=1837597 | touchRes=220744(eff=145,ineff=220599) resetRes=207(ineff=207,eff=0) | bc++=220806 bc--=145 inv=0
[DSB @ 2200000 calls] bc=12 isBypassOn=false| real=462 virt=274430 notrack=1925107 | touchRes=231351(eff=145,ineff=231206) resetRes=207(ineff=207,eff=0) | bc++=231413 bc--=145 inv=0
[DSB @ 2300000 calls] bc=12 isBypassOn=false| real=462 virt=286858 notrack=2012679 | touchRes=241834(eff=145,ineff=241689) resetRes=207(ineff=207,eff=0) | bc++=241896 bc--=145 inv=0
[DSB @ 2400000 calls] bc=12 isBypassOn=false| real=462 virt=299206 notrack=2100331 | touchRes=252304(eff=145,ineff=252159) resetRes=207(ineff=207,eff=0) | bc++=252366 bc--=145 inv=0
[DSB @ 2500000 calls] bc=12 isBypassOn=false| real=462 virt=311676 notrack=2187861 | touchRes=262771(eff=145,ineff=262626) resetRes=207(ineff=207,eff=0) | bc++=262833 bc--=145 inv=0
[DSB @ 2600000 calls] bc=12 isBypassOn=false| real=462 virt=324311 notrack=2275226 | touchRes=273416(eff=145,ineff=273271) resetRes=207(ineff=207,eff=0) | bc++=273478 bc--=145 inv=0
[DSB @ 2700000 calls] bc=12 isBypassOn=false| real=462 virt=336847 notrack=2362690 | touchRes=283944(eff=145,ineff=283799) resetRes=207(ineff=207,eff=0) | bc++=284006 bc--=145 inv=0
[DSB @ 2800000 calls] bc=12 isBypassOn=false| real=462 virt=349483 notrack=2450054 | touchRes=294539(eff=145,ineff=294394) resetRes=207(ineff=207,eff=0) | bc++=294601 bc--=145 inv=0
[DSB @ 2900000 calls] bc=12 isBypassOn=false| real=462 virt=361797 notrack=2537740 | touchRes=304981(eff=145,ineff=304836) resetRes=207(ineff=207,eff=0) | bc++=305043 bc--=145 inv=0
[DSB @ 3000000 calls] bc=12 isBypassOn=false| real=462 virt=374516 notrack=2625021 | touchRes=315644(eff=145,ineff=315499) resetRes=207(ineff=207,eff=0) | bc++=315706 bc--=145 inv=0
[DSB @ 3100000 calls] bc=12 isBypassOn=false| real=462 virt=387072 notrack=2712465 | touchRes=326245(eff=145,ineff=326100) resetRes=207(ineff=207,eff=0) | bc++=326307 bc--=145 inv=0
[DSB @ 3200000 calls] bc=12 isBypassOn=false| real=462 virt=399569 notrack=2799968 | touchRes=336746(eff=145,ineff=336601) resetRes=207(ineff=207,eff=0) | bc++=336808 bc--=145 inv=0
[DSB @ 3300000 calls] bc=12 isBypassOn=false| real=462 virt=412275 notrack=2887262 | touchRes=347451(eff=145,ineff=347306) resetRes=207(ineff=207,eff=0) | bc++=347513 bc--=145 inv=0
[DSB @ 3400000 calls] bc=12 isBypassOn=false| real=462 virt=424523 notrack=2975014 | touchRes=357756(eff=145,ineff=357611) resetRes=207(ineff=207,eff=0) | bc++=357818 bc--=145 inv=0
[DSB @ 3500000 calls] bc=12 isBypassOn=false| real=462 virt=436952 notrack=3062585 | touchRes=368279(eff=145,ineff=368134) resetRes=207(ineff=207,eff=0) | bc++=368341 bc--=145 inv=0
[DSB @ 3600000 calls] bc=12 isBypassOn=false| real=462 virt=449594 notrack=3149943 | touchRes=378865(eff=145,ineff=378720) resetRes=207(ineff=207,eff=0) | bc++=378927 bc--=145 inv=0
[DSB @ 3700000 calls] bc=12 isBypassOn=false| real=462 virt=462048 notrack=3237489 | touchRes=389315(eff=145,ineff=389170) resetRes=207(ineff=207,eff=0) | bc++=389377 bc--=145 inv=0
[DSB @ 3800000 calls] bc=12 isBypassOn=false| real=462 virt=474648 notrack=3324889 | touchRes=399960(eff=145,ineff=399815) resetRes=207(ineff=207,eff=0) | bc++=400022 bc--=145 inv=0
[DSB @ 3900000 calls] bc=12 isBypassOn=false| real=462 virt=487037 notrack=3412500 | touchRes=410411(eff=145,ineff=410266) resetRes=207(ineff=207,eff=0) | bc++=410473 bc--=145 inv=0
[DSB @ 4000000 calls] bc=12 isBypassOn=false| real=462 virt=499473 notrack=3500064 | touchRes=420871(eff=145,ineff=420726) resetRes=207(ineff=207,eff=0) | bc++=420933 bc--=145 inv=0
[DSB @ 4100000 calls] bc=12 isBypassOn=false| real=462 virt=511953 notrack=3587584 | touchRes=431391(eff=145,ineff=431246) resetRes=207(ineff=207,eff=0) | bc++=431453 bc--=145 inv=0
[DSB @ 4200000 calls] bc=12 isBypassOn=false| real=462 virt=524417 notrack=3675120 | touchRes=441878(eff=145,ineff=441733) resetRes=207(ineff=207,eff=0) | bc++=441940 bc--=145 inv=0
[DSB @ 4300000 calls] bc=12 isBypassOn=false| real=462 virt=536887 notrack=3762650 | touchRes=452440(eff=145,ineff=452295) resetRes=207(ineff=207,eff=0) | bc++=452502 bc--=145 inv=0
[DSB @ 4400000 calls] bc=12 isBypassOn=false| real=462 virt=549340 notrack=3850197 | touchRes=462982(eff=145,ineff=462837) resetRes=207(ineff=207,eff=0) | bc++=463044 bc--=145 inv=0
[DSB @ 4500000 calls] bc=12 isBypassOn=false| real=462 virt=561695 notrack=3937842 | touchRes=473452(eff=145,ineff=473307) resetRes=207(ineff=207,eff=0) | bc++=473514 bc--=145 inv=0
[DSB @ 4600000 calls] bc=12 isBypassOn=false| real=462 virt=574144 notrack=4025393 | touchRes=483962(eff=145,ineff=483817) resetRes=207(ineff=207,eff=0) | bc++=484024 bc--=145 inv=0
[DSB @ 4700000 calls] bc=12 isBypassOn=false| real=462 virt=586744 notrack=4112793 | touchRes=494595(eff=145,ineff=494450) resetRes=207(ineff=207,eff=0) | bc++=494657 bc--=145 inv=0
[DSB @ 4800000 calls] bc=12 isBypassOn=false| real=462 virt=599268 notrack=4200269 | touchRes=505131(eff=145,ineff=504986) resetRes=207(ineff=207,eff=0) | bc++=505193 bc--=145 inv=0
[DSB @ 4900000 calls] bc=12 isBypassOn=false| real=462 virt=611693 notrack=4287844 | touchRes=515593(eff=145,ineff=515448) resetRes=207(ineff=207,eff=0) | bc++=515655 bc--=145 inv=0
[DSB @ 5000000 calls] bc=12 isBypassOn=false| real=462 virt=624160 notrack=4375377 | touchRes=526118(eff=145,ineff=525973) resetRes=207(ineff=207,eff=0) | bc++=526180 bc--=145 inv=0
[DSB @ 5100000 calls] bc=12 isBypassOn=false| real=462 virt=636708 notrack=4462829 | touchRes=536713(eff=145,ineff=536568) resetRes=207(ineff=207,eff=0) | bc++=536775 bc--=145 inv=0
[DSB @ 5200000 calls] bc=12 isBypassOn=false| real=462 virt=649243 notrack=4550294 | touchRes=547310(eff=145,ineff=547165) resetRes=207(ineff=207,eff=0) | bc++=547372 bc--=145 inv=3
[DSB @ 5300000 calls] bc=12 isBypassOn=false| real=462 virt=661835 notrack=4637702 | touchRes=557996(eff=145,ineff=557851) resetRes=207(ineff=207,eff=0) | bc++=558058 bc--=145 inv=3
[DSB @ 5400000 calls] bc=12 isBypassOn=false| real=462 virt=674315 notrack=4725222 | touchRes=568587(eff=145,ineff=568442) resetRes=207(ineff=207,eff=0) | bc++=568649 bc--=145 inv=3
[DSB @ 5500000 calls] bc=12 isBypassOn=false| real=462 virt=686762 notrack=4812775 | touchRes=579174(eff=145,ineff=579029) resetRes=207(ineff=207,eff=0) | bc++=579236 bc--=145 inv=3
[DSB @ 5600000 calls] bc=12 isBypassOn=false| real=462 virt=699158 notrack=4900379 | touchRes=589632(eff=145,ineff=589487) resetRes=207(ineff=207,eff=0) | bc++=589694 bc--=145 inv=3
[DSB @ 5700000 calls] bc=12 isBypassOn=false| real=462 virt=711775 notrack=4987762 | touchRes=600391(eff=145,ineff=600246) resetRes=207(ineff=207,eff=0) | bc++=600453 bc--=145 inv=3
[DSB @ 5800000 calls] bc=12 isBypassOn=false| real=462 virt=724296 notrack=5075241 | touchRes=611060(eff=145,ineff=610915) resetRes=207(ineff=207,eff=0) | bc++=611122 bc--=145 inv=3
[DSB @ 5900000 calls] bc=12 isBypassOn=false| real=462 virt=736767 notrack=5162770 | touchRes=621548(eff=145,ineff=621403) resetRes=207(ineff=207,eff=0) | bc++=621610 bc--=145 inv=3
[DSB @ 6000000 calls] bc=12 isBypassOn=false| real=462 virt=749171 notrack=5250366 | touchRes=632115(eff=145,ineff=631970) resetRes=207(ineff=207,eff=0) | bc++=632177 bc--=145 inv=3
[DSB @ 6100000 calls] bc=12 isBypassOn=false| real=462 virt=761446 notrack=5338091 | touchRes=642525(eff=145,ineff=642380) resetRes=207(ineff=207,eff=0) | bc++=642587 bc--=145 inv=3
[DSB @ 6200000 calls] bc=12 isBypassOn=false| real=462 virt=774015 notrack=5425522 | touchRes=653213(eff=145,ineff=653068) resetRes=207(ineff=207,eff=0) | bc++=653275 bc--=145 inv=3
[DSB @ 6300000 calls] bc=12 isBypassOn=false| real=462 virt=786546 notrack=5512991 | touchRes=663864(eff=145,ineff=663719) resetRes=207(ineff=207,eff=0) | bc++=663926 bc--=145 inv=3
[DSB @ 6400000 calls] bc=12 isBypassOn=false| real=462 virt=799200 notrack=5600337 | touchRes=674569(eff=145,ineff=674424) resetRes=207(ineff=207,eff=0) | bc++=674631 bc--=145 inv=3
[DSB @ 6500000 calls] bc=12 isBypassOn=false| real=462 virt=811642 notrack=5687895 | touchRes=685139(eff=145,ineff=684994) resetRes=207(ineff=207,eff=0) | bc++=685201 bc--=145 inv=3
[DSB @ 6600000 calls] bc=12 isBypassOn=false| real=462 virt=824142 notrack=5775395 | touchRes=695684(eff=145,ineff=695539) resetRes=207(ineff=207,eff=0) | bc++=695746 bc--=145 inv=3
[DSB @ 6700000 calls] bc=12 isBypassOn=false| real=462 virt=836703 notrack=5862834 | touchRes=706280(eff=145,ineff=706135) resetRes=207(ineff=207,eff=0) | bc++=706342 bc--=145 inv=3
[DSB @ 6800000 calls] bc=12 isBypassOn=false| real=462 virt=849172 notrack=5950365 | touchRes=716845(eff=145,ineff=716700) resetRes=207(ineff=207,eff=0) | bc++=716907 bc--=145 inv=3
[DSB @ 6900000 calls] bc=12 isBypassOn=false| real=462 virt=861727 notrack=6037810 | touchRes=727487(eff=145,ineff=727342) resetRes=207(ineff=207,eff=0) | bc++=727549 bc--=145 inv=3
[DSB @ 7000000 calls] bc=12 isBypassOn=false| real=462 virt=874444 notrack=6125093 | touchRes=738260(eff=145,ineff=738115) resetRes=207(ineff=207,eff=0) | bc++=738322 bc--=145 inv=3
[DSB @ 7100000 calls] bc=12 isBypassOn=false| real=462 virt=886910 notrack=6212627 | touchRes=748807(eff=145,ineff=748662) resetRes=207(ineff=207,eff=0) | bc++=748869 bc--=145 inv=3
Exiting @ tick 26585467186500 because a thread reached the max instruction count
