warn: The `get_runtime_isa` function is deprecated. Please migrate away from using this function.
warn: The se.py script is deprecated. It will be removed in future releases of  gem5.
warn: The `get_runtime_isa` function is deprecated. Please migrate away from using this function.
Global frequency set at 1000000000000 ticks per second
src/base/statistics.hh:279: warn: One of the stats is a legacy stat. Legacy stat is a stat that does not belong to any statistics::Group. Legacy stat is deprecated.
src/base/remote_gdb.cc:418: warn: Sockets disabled, not accepting gdb connections
src/sim/process.cc:396: warn: Checkpoints for pipes, device drivers and sockets do not work.
gem5 Simulator System.  https://www.gem5.org
gem5 is copyrighted software; use the --copyright option for details.

gem5 version 23.0.0.1
gem5 compiled Apr  6 2026 01:50:35
gem5 started Apr  6 2026 09:21:41
gem5 executing on b49ce2a326be, pid 171865
command line: /opt/gem5/build/X86/gem5.opt --outdir=/workspace/results_l3/1MB/policy1Config3/pop2 /workspace/configs/run_spec_l3.py --rp-type=DSBRP --l3-size=1MB --l3-assoc=16 --cpu-type=DerivO3CPU --cmd=./speed_pop2_base.gem5-x86 --options= --mem-size=8GB --maxinst=250000000 --caches --l2cache --l1d_size=32kB --l1i_size=32kB --l1d_assoc=8 --l1i_assoc=8 --l2_size=256kB --l2_assoc=8 --checkpoint-restore=1 --checkpoint-dir=/workspace/checkpoints/pop2/m5out --restore-with-cpu=AtomicSimpleCPU --standard-switch=1 --warmup-insts=50000000 --dsb-enable-bypass=true --dsb-enable-aging=true --dsb-bypass-counter=3 --dsb-virtual-bypass-counter=3 --dsb-random-promotion=4 --dsb-minimum-bypass-counter=12

info: Standard input is not a terminal, disabling listeners.
Replacement policy: DSBRP
L1I size: 32kB, assoc: 8
L1D size: 32kB, assoc: 8
L2 size: 256kB, assoc: 8
L3 size: 1MB, L3 assoc: 16
Switch at instruction count:1
src/sim/simulate.cc:194: info: Entering event queue @ 28375057083500.  Starting simulation...
src/sim/simulate.cc:194: info: Entering event queue @ 28375057085000.  Starting simulation...
src/sim/power_state.cc:105: warn: PowerState: Already in the requested power state, request ignored
Switched CPUS @ tick 28375057085000
switching cpus
Switch at instruction count:50000000
src/sim/simulate.cc:194: info: Entering event queue @ 28375057086000.  Starting simulation...
[DSB @ 100000 calls] bc=12 isBypassOn=false| real=528 virt=12428 notrack=87043 | touchRes=9070(eff=192,ineff=8878) resetRes=481(ineff=48,eff=433) | bc++=8926 bc--=625 inv=162
src/sim/simulate.cc:194: info: Entering event queue @ 28515330532000.  Starting simulation...
Switching CPUS @ tick 28515330532000
Simulation ends instruction count:250000000
switching cpus
**** REAL SIMULATION ****
src/sim/simulate.cc:194: info: Entering event queue @ 28515330749250.  Starting simulation...
[DSB @ 200000 calls] bc=12 isBypassOn=false| real=544 virt=24822 notrack=174633 | touchRes=18444(eff=193,ineff=18251) resetRes=1433(ineff=52,eff=1381) | bc++=18303 bc--=1574 inv=656
[DSB @ 300000 calls] bc=12 isBypassOn=false| real=559 virt=37248 notrack=262192 | touchRes=27901(eff=196,ineff=27705) resetRes=2390(ineff=55,eff=2335) | bc++=27760 bc--=2531 inv=1137
[DSB @ 400000 calls] bc=12 isBypassOn=false| real=573 virt=49607 notrack=349819 | touchRes=35861(eff=196,ineff=35665) resetRes=2755(ineff=55,eff=2700) | bc++=35720 bc--=2896 inv=1306
[DSB @ 500000 calls] bc=12 isBypassOn=false| real=1628 virt=61921 notrack=436450 | touchRes=43588(eff=209,ineff=43379) resetRes=3187(ineff=55,eff=3132) | bc++=43434 bc--=3341 inv=2065
[DSB @ 600000 calls] bc=12 isBypassOn=false| real=1628 virt=74378 notrack=523993 | touchRes=51810(eff=209,ineff=51601) resetRes=3225(ineff=55,eff=3170) | bc++=51656 bc--=3379 inv=2096
[DSB @ 700000 calls] bc=12 isBypassOn=false| real=1785 virt=86706 notrack=611508 | touchRes=59440(eff=211,ineff=59229) resetRes=3656(ineff=55,eff=3601) | bc++=59284 bc--=3812 inv=2263
[DSB @ 800000 calls] bc=12 isBypassOn=false| real=1785 virt=99257 notrack=698957 | touchRes=67408(eff=211,ineff=67197) resetRes=3810(ineff=55,eff=3755) | bc++=67252 bc--=3966 inv=2301
[DSB @ 900000 calls] bc=12 isBypassOn=false| real=1793 virt=111855 notrack=786351 | touchRes=77140(eff=212,ineff=76928) resetRes=4722(ineff=58,eff=4664) | bc++=76986 bc--=4876 inv=2701
[DSB @ 1000000 calls] bc=12 isBypassOn=false| real=1808 virt=124185 notrack=874006 | touchRes=86257(eff=215,ineff=86042) resetRes=5690(ineff=60,eff=5630) | bc++=86102 bc--=5845 inv=3193
[DSB @ 1100000 calls] bc=12 isBypassOn=false| real=1886 virt=136545 notrack=961568 | touchRes=95076(eff=231,ineff=94845) resetRes=6338(ineff=61,eff=6277) | bc++=94906 bc--=6508 inv=3579
[DSB @ 1200000 calls] bc=12 isBypassOn=false| real=1894 virt=148981 notrack=1049124 | touchRes=103074(eff=231,ineff=102843) resetRes=6583(ineff=61,eff=6522) | bc++=102904 bc--=6753 inv=3712
[DSB @ 1300000 calls] bc=12 isBypassOn=false| real=14404 virt=160029 notrack=1125566 | touchRes=110644(eff=656,ineff=109988) resetRes=7001(ineff=104,eff=6897) | bc++=110092 bc--=7553 inv=4630
Exiting @ tick 28688776921000 because a thread reached the max instruction count
