warn: The `get_runtime_isa` function is deprecated. Please migrate away from using this function.
warn: The se.py script is deprecated. It will be removed in future releases of  gem5.
warn: The `get_runtime_isa` function is deprecated. Please migrate away from using this function.
Global frequency set at 1000000000000 ticks per second
src/base/statistics.hh:279: warn: One of the stats is a legacy stat. Legacy stat is a stat that does not belong to any statistics::Group. Legacy stat is deprecated.
src/base/remote_gdb.cc:418: warn: Sockets disabled, not accepting gdb connections
src/sim/process.cc:396: warn: Checkpoints for pipes, device drivers and sockets do not work.
gem5 Simulator System.  https://www.gem5.org
gem5 is copyrighted software; use the --copyright option for details.

gem5 version 23.0.0.1
gem5 compiled Apr  6 2026 01:50:35
gem5 started Apr  6 2026 07:03:39
gem5 executing on b49ce2a326be, pid 149213
command line: /opt/gem5/build/X86/gem5.opt --outdir=/workspace/results_l3/1MB/policy1Config2/gcc /workspace/configs/run_spec_l3.py --rp-type=DSBRP --l3-size=1MB --l3-assoc=16 --cpu-type=DerivO3CPU --cmd=./sgcc_base.gem5-x86 '--options=gcc-pp.c -O5 -fipa-pta -o gcc-pp.opts-O5_-fipa-pta.s' --mem-size=8GB --maxinst=250000000 --caches --l2cache --l1d_size=32kB --l1i_size=32kB --l1d_assoc=8 --l1i_assoc=8 --l2_size=256kB --l2_assoc=8 --checkpoint-restore=1 --checkpoint-dir=/workspace/checkpoints/gcc/m5out --restore-with-cpu=AtomicSimpleCPU --standard-switch=1 --warmup-insts=50000000 --dsb-enable-bypass=true --dsb-enable-aging=true --dsb-bypass-counter=6 --dsb-virtual-bypass-counter=3 --dsb-random-promotion=0 --dsb-minimum-bypass-counter=12

info: Standard input is not a terminal, disabling listeners.
Replacement policy: DSBRP
L1I size: 32kB, assoc: 8
L1D size: 32kB, assoc: 8
L2 size: 256kB, assoc: 8
L3 size: 1MB, L3 assoc: 16
Switch at instruction count:1
src/sim/simulate.cc:194: info: Entering event queue @ 27766339396500.  Starting simulation...
src/sim/simulate.cc:194: info: Entering event queue @ 27766339398500.  Starting simulation...
src/sim/power_state.cc:105: warn: PowerState: Already in the requested power state, request ignored
Switched CPUS @ tick 27766339398500
switching cpus
Switch at instruction count:50000000
src/sim/simulate.cc:194: info: Entering event queue @ 27766339399000.  Starting simulation...
[DSB @ 100000 calls] bc=12 isBypassOn=false| real=3560 virt=12092 notrack=84347 | touchRes=8840(eff=545,ineff=8295) resetRes=1015(ineff=173,eff=842) | bc++=8468 bc--=1387 inv=1148
src/sim/simulate.cc:194: info: Entering event queue @ 27884732128500.  Starting simulation...
Switching CPUS @ tick 27884732128500
Simulation ends instruction count:250000000
switching cpus
**** REAL SIMULATION ****
src/sim/simulate.cc:194: info: Entering event queue @ 27884732343500.  Starting simulation...
[DSB @ 200000 calls] bc=12 isBypassOn=false| real=3567 virt=24470 notrack=171962 | touchRes=18242(eff=545,ineff=17697) resetRes=1876(ineff=174,eff=1702) | bc++=17871 bc--=2247 inv=1647
[DSB @ 300000 calls] bc=9 isBypassOn=true| real=4907 virt=36772 notrack=258320 | touchRes=27138(eff=719,ineff=26419) resetRes=3163(ineff=192,eff=2971) | bc++=26611 bc--=3690 inv=2479
[DSB @ 400000 calls] bc=12 isBypassOn=false| real=6178 virt=49019 notrack=344802 | touchRes=35987(eff=925,ineff=35062) resetRes=4417(ineff=383,eff=4034) | bc++=35445 bc--=4959 inv=3554
[DSB @ 500000 calls] bc=12 isBypassOn=false| real=7643 virt=61382 notrack=430974 | touchRes=44148(eff=1077,ineff=43071) resetRes=6025(ineff=476,eff=5549) | bc++=43547 bc--=6626 inv=4798
[DSB @ 600000 calls] bc=12 isBypassOn=false| real=7670 virt=74013 notrack=518316 | touchRes=53969(eff=1080,ineff=52889) resetRes=6840(ineff=476,eff=6364) | bc++=53365 bc--=7444 inv=5214
Exiting @ tick 28066388747500 because a thread reached the max instruction count
