warn: The `get_runtime_isa` function is deprecated. Please migrate away from using this function.
warn: The se.py script is deprecated. It will be removed in future releases of  gem5.
warn: The `get_runtime_isa` function is deprecated. Please migrate away from using this function.
Global frequency set at 1000000000000 ticks per second
src/base/statistics.hh:279: warn: One of the stats is a legacy stat. Legacy stat is a stat that does not belong to any statistics::Group. Legacy stat is deprecated.
src/base/remote_gdb.cc:418: warn: Sockets disabled, not accepting gdb connections
src/sim/process.cc:396: warn: Checkpoints for pipes, device drivers and sockets do not work.
gem5 Simulator System.  https://www.gem5.org
gem5 is copyrighted software; use the --copyright option for details.

gem5 version 23.0.0.1
gem5 compiled Apr  6 2026 01:50:35
gem5 started Apr  6 2026 05:04:29
gem5 executing on b49ce2a326be, pid 129607
command line: /opt/gem5/build/X86/gem5.opt --outdir=/workspace/results_l3/1MB/policy0Config3/imagick /workspace/configs/run_spec_l3.py --rp-type=DSBRP --l3-size=1MB --l3-assoc=16 --cpu-type=DerivO3CPU --cmd=./imagick_s_base.gem5-x86 '--options=-limit disk 0 refspeed_input.tga -resize 817% -rotate -2.76 -shave 540x375 -alpha remove -auto-level -contrast-stretch 1x1% -colorspace Lab -channel R -equalize +channel -colorspace sRGB -define histogram:unique-colors=false -adaptive-blur 0x5 -despeckle -auto-gamma -adaptive-sharpen 55 -enhance -brightness-contrast 10x10 -resize 30% refspeed_output.tga' --mem-size=8GB --maxinst=250000000 --caches --l2cache --l1d_size=32kB --l1i_size=32kB --l1d_assoc=8 --l1i_assoc=8 --l2_size=256kB --l2_assoc=8 --checkpoint-restore=1 --checkpoint-dir=/workspace/checkpoints/imagick/m5out --restore-with-cpu=AtomicSimpleCPU --standard-switch=1 --warmup-insts=50000000 --dsb-enable-bypass=true --dsb-enable-aging=false --dsb-bypass-counter=3 --dsb-virtual-bypass-counter=3 --dsb-random-promotion=0 --dsb-minimum-bypass-counter=12

info: Standard input is not a terminal, disabling listeners.
Replacement policy: DSBRP
L1I size: 32kB, assoc: 8
L1D size: 32kB, assoc: 8
L2 size: 256kB, assoc: 8
L3 size: 1MB, L3 assoc: 16
Switch at instruction count:1
src/sim/simulate.cc:194: info: Entering event queue @ 26455902910500.  Starting simulation...
src/sim/power_state.cc:105: warn: PowerState: Already in the requested power state, request ignored
Switched CPUS @ tick 26455902912000
switching cpus
Switch at instruction count:50000000
src/sim/simulate.cc:194: info: Entering event queue @ 26455902912000.  Starting simulation...
[DSB @ 100000 calls] bc=0 isBypassOn=true| real=40820 virt=7424 notrack=51755 | touchRes=5952(eff=4790,ineff=1162) resetRes=1550(ineff=1131,eff=419) | bc++=2293 bc--=5209 inv=6496
src/sim/simulate.cc:194: info: Entering event queue @ 26549736943500.  Starting simulation...
Switching CPUS @ tick 26549736943500
Simulation ends instruction count:250000000
switching cpus
**** REAL SIMULATION ****
src/sim/simulate.cc:194: info: Entering event queue @ 26549737099750.  Starting simulation...
[DSB @ 200000 calls] bc=0 isBypassOn=true| real=128328 virt=9004 notrack=62667 | touchRes=8430(eff=7266,ineff=1164) resetRes=1659(ineff=1212,eff=447) | bc++=2376 bc--=7713 inv=11019
[DSB @ 300000 calls] bc=8 isBypassOn=true| real=165383 virt=16870 notrack=117746 | touchRes=14450(eff=12839,ineff=1611) resetRes=4088(ineff=3218,eff=870) | bc++=4829 bc--=13709 inv=24556
[DSB @ 400000 calls] bc=0 isBypassOn=true| real=195133 virt=25753 notrack=179113 | touchRes=20037(eff=17735,ineff=2302) resetRes=6491(ineff=4987,eff=1504) | bc++=7289 bc--=19239 inv=36286
[DSB @ 500000 calls] bc=12 isBypassOn=false| real=214822 virt=35649 notrack=249528 | touchRes=24205(eff=21074,ineff=3131) resetRes=8687(ineff=6565,eff=2122) | bc++=9696 bc--=23196 inv=47815
[DSB @ 600000 calls] bc=0 isBypassOn=true| real=253949 virt=43191 notrack=302859 | touchRes=31935(eff=28376,ineff=3559) resetRes=10915(ineff=8329,eff=2586) | bc++=11888 bc--=30962 inv=60448
[DSB @ 700000 calls] bc=0 isBypassOn=true| real=273330 virt=53260 notrack=373409 | touchRes=35836(eff=31472,ineff=4364) resetRes=12577(ineff=9408,eff=3169) | bc++=13772 bc--=34641 inv=71399
Exiting @ tick 26657172341000 because a thread reached the max instruction count
