warn: The `get_runtime_isa` function is deprecated. Please migrate away from using this function.
warn: The se.py script is deprecated. It will be removed in future releases of  gem5.
warn: The `get_runtime_isa` function is deprecated. Please migrate away from using this function.
Global frequency set at 1000000000000 ticks per second
src/base/statistics.hh:279: warn: One of the stats is a legacy stat. Legacy stat is a stat that does not belong to any statistics::Group. Legacy stat is deprecated.
src/base/remote_gdb.cc:418: warn: Sockets disabled, not accepting gdb connections
src/sim/process.cc:396: warn: Checkpoints for pipes, device drivers and sockets do not work.
gem5 Simulator System.  https://www.gem5.org
gem5 is copyrighted software; use the --copyright option for details.

gem5 version 23.0.0.1
gem5 compiled Apr  6 2026 01:50:35
gem5 started Apr  7 2026 09:25:15
gem5 executing on b49ce2a326be, pid 75537
command line: /opt/gem5/build/X86/gem5.opt --outdir=/workspace/results_l3/4MB/policy0Config1/pop2 /workspace/configs/run_spec_l3.py --rp-type=DSBRP --l3-size=4MB --l3-assoc=16 --cpu-type=DerivO3CPU --cmd=./speed_pop2_base.gem5-x86 --options= --mem-size=8GB --maxinst=250000000 --caches --l2cache --l1d_size=32kB --l1i_size=32kB --l1d_assoc=8 --l1i_assoc=8 --l2_size=256kB --l2_assoc=8 --checkpoint-restore=1 --checkpoint-dir=/workspace/checkpoints/pop2/m5out --restore-with-cpu=AtomicSimpleCPU --standard-switch=1 --warmup-insts=50000000 --dsb-enable-bypass=true --dsb-enable-aging=false --dsb-bypass-counter=6 --dsb-virtual-bypass-counter=4 --dsb-random-promotion=0 --dsb-minimum-bypass-counter=8

info: Standard input is not a terminal, disabling listeners.
Replacement policy: DSBRP
L1I size: 32kB, assoc: 8
L1D size: 32kB, assoc: 8
L2 size: 256kB, assoc: 8
L3 size: 4MB, L3 assoc: 16
Switch at instruction count:1
src/sim/simulate.cc:194: info: Entering event queue @ 28375057083500.  Starting simulation...
src/sim/simulate.cc:194: info: Entering event queue @ 28375057085000.  Starting simulation...
src/sim/power_state.cc:105: warn: PowerState: Already in the requested power state, request ignored
Switched CPUS @ tick 28375057085000
switching cpus
Switch at instruction count:50000000
src/sim/simulate.cc:194: info: Entering event queue @ 28375057086000.  Starting simulation...
[DSB @ 100000 calls] bc=8 isBypassOn=false| real=83 virt=6207 notrack=93709 | touchRes=5276(eff=49,ineff=5227) resetRes=188(ineff=16,eff=172) | bc++=5243 bc--=221 inv=551
src/sim/simulate.cc:194: info: Entering event queue @ 28514932250500.  Starting simulation...
Switching CPUS @ tick 28514932250500
Simulation ends instruction count:250000000
switching cpus
**** REAL SIMULATION ****
src/sim/simulate.cc:194: info: Entering event queue @ 28514932368000.  Starting simulation...
[DSB @ 200000 calls] bc=8 isBypassOn=false| real=1527 virt=12415 notrack=186057 | touchRes=9392(eff=383,ineff=9009) resetRes=1111(ineff=506,eff=605) | bc++=9515 bc--=988 inv=2843
[DSB @ 300000 calls] bc=8 isBypassOn=false| real=1915 virt=18617 notrack=279467 | touchRes=13403(eff=499,ineff=12904) resetRes=1638(ineff=607,eff=1031) | bc++=13511 bc--=1530 inv=4825
[DSB @ 400000 calls] bc=0 isBypassOn=true| real=32110 virt=23012 notrack=344877 | touchRes=23081(eff=8602,ineff=14479) resetRes=7430(ineff=5850,eff=1580) | bc++=20329 bc--=10182 inv=14125
[DSB @ 500000 calls] bc=7 isBypassOn=true| real=64357 virt=27195 notrack=408447 | touchRes=31221(eff=14968,ineff=16253) resetRes=12317(ineff=10160,eff=2157) | bc++=26413 bc--=17125 inv=25246
[DSB @ 600000 calls] bc=8 isBypassOn=false| real=96118 virt=31598 notrack=472283 | touchRes=38569(eff=21505,ineff=17064) resetRes=19235(ineff=16327,eff=2908) | bc++=33391 bc--=24413 inv=37593
[DSB @ 700000 calls] bc=8 isBypassOn=false| real=133136 virt=35509 notrack=531354 | touchRes=48234(eff=30192,ineff=18042) resetRes=23458(ineff=19940,eff=3518) | bc++=37982 bc--=33710 inv=51631
[DSB @ 800000 calls] bc=0 isBypassOn=true| real=186764 virt=38370 notrack=574865 | touchRes=51890(eff=32394,ineff=19496) resetRes=24868(ineff=21209,eff=3659) | bc++=40705 bc--=36053 inv=56895
[DSB @ 900000 calls] bc=8 isBypassOn=false| real=235113 virt=41721 notrack=623165 | touchRes=56693(eff=35764,ineff=20929) resetRes=25623(ineff=21662,eff=3961) | bc++=42591 bc--=39725 inv=61828
[DSB @ 1000000 calls] bc=8 isBypassOn=false| real=238433 virt=47792 notrack=713774 | touchRes=60703(eff=36615,ineff=24088) resetRes=26979(ineff=22427,eff=4552) | bc++=46515 bc--=41167 inv=65175
[DSB @ 1100000 calls] bc=8 isBypassOn=false| real=238690 virt=54023 notrack=807286 | touchRes=64373(eff=36680,ineff=27693) resetRes=27559(ineff=22464,eff=5095) | bc++=50157 bc--=41775 inv=67261
[DSB @ 1200000 calls] bc=8 isBypassOn=false| real=240612 virt=60045 notrack=899342 | touchRes=68233(eff=37107,ineff=31126) resetRes=28480(ineff=22849,eff=5631) | bc++=53975 bc--=42738 inv=69782
[DSB @ 1300000 calls] bc=8 isBypassOn=true| real=272522 virt=64279 notrack=963198 | touchRes=76089(eff=43371,ineff=32718) resetRes=31187(ineff=25060,eff=6127) | bc++=57778 bc--=49498 inv=79406
[DSB @ 1400000 calls] bc=0 isBypassOn=true| real=290640 virt=69309 notrack=1040050 | touchRes=82060(eff=47054,ineff=35006) resetRes=36065(ineff=29293,eff=6772) | bc++=64299 bc--=53826 inv=86956
[DSB @ 1500000 calls] bc=0 isBypassOn=true| real=326702 virt=73277 notrack=1100020 | touchRes=90153(eff=54304,ineff=35849) resetRes=41672(ineff=34352,eff=7320) | bc++=70201 bc--=61624 inv=100483
Exiting @ tick 28686045415000 because a thread reached the max instruction count
