warn: The `get_runtime_isa` function is deprecated. Please migrate away from using this function.
warn: The se.py script is deprecated. It will be removed in future releases of  gem5.
warn: The `get_runtime_isa` function is deprecated. Please migrate away from using this function.
Global frequency set at 1000000000000 ticks per second
src/base/statistics.hh:279: warn: One of the stats is a legacy stat. Legacy stat is a stat that does not belong to any statistics::Group. Legacy stat is deprecated.
src/base/remote_gdb.cc:418: warn: Sockets disabled, not accepting gdb connections
src/sim/process.cc:396: warn: Checkpoints for pipes, device drivers and sockets do not work.
gem5 Simulator System.  https://www.gem5.org
gem5 is copyrighted software; use the --copyright option for details.

gem5 version 23.0.0.1
gem5 compiled Apr  6 2026 01:50:35
gem5 started Apr  6 2026 15:31:13
gem5 executing on b49ce2a326be, pid 239777
command line: /opt/gem5/build/X86/gem5.opt --outdir=/workspace/results_l3/2MB/policy1Config2/pop2 /workspace/configs/run_spec_l3.py --rp-type=DSBRP --l3-size=2MB --l3-assoc=16 --cpu-type=DerivO3CPU --cmd=./speed_pop2_base.gem5-x86 --options= --mem-size=8GB --maxinst=250000000 --caches --l2cache --l1d_size=32kB --l1i_size=32kB --l1d_assoc=8 --l1i_assoc=8 --l2_size=256kB --l2_assoc=8 --checkpoint-restore=1 --checkpoint-dir=/workspace/checkpoints/pop2/m5out --restore-with-cpu=AtomicSimpleCPU --standard-switch=1 --warmup-insts=50000000 --dsb-enable-bypass=true --dsb-enable-aging=true --dsb-bypass-counter=6 --dsb-virtual-bypass-counter=3 --dsb-random-promotion=0 --dsb-minimum-bypass-counter=12

info: Standard input is not a terminal, disabling listeners.
Replacement policy: DSBRP
L1I size: 32kB, assoc: 8
L1D size: 32kB, assoc: 8
L2 size: 256kB, assoc: 8
L3 size: 2MB, L3 assoc: 16
Switch at instruction count:1
src/sim/simulate.cc:194: info: Entering event queue @ 28375057083500.  Starting simulation...
src/sim/simulate.cc:194: info: Entering event queue @ 28375057085000.  Starting simulation...
src/sim/power_state.cc:105: warn: PowerState: Already in the requested power state, request ignored
Switched CPUS @ tick 28375057085000
switching cpus
Switch at instruction count:50000000
src/sim/simulate.cc:194: info: Entering event queue @ 28375057086000.  Starting simulation...
[DSB @ 100000 calls] bc=12 isBypassOn=false| real=31 virt=12428 notrack=87540 | touchRes=10837(eff=22,ineff=10815) resetRes=13(ineff=1,eff=12) | bc++=10816 bc--=34 inv=3
src/sim/simulate.cc:194: info: Entering event queue @ 28514093310500.  Starting simulation...
Switching CPUS @ tick 28514093310500
Simulation ends instruction count:250000000
switching cpus
**** REAL SIMULATION ****
src/sim/simulate.cc:194: info: Entering event queue @ 28514093463000.  Starting simulation...
[DSB @ 200000 calls] bc=12 isBypassOn=false| real=31 virt=24860 notrack=175108 | touchRes=22316(eff=22,ineff=22294) resetRes=13(ineff=1,eff=12) | bc++=22295 bc--=34 inv=8
[DSB @ 300000 calls] bc=12 isBypassOn=false| real=31 virt=37343 notrack=262625 | touchRes=33407(eff=22,ineff=33385) resetRes=25(ineff=1,eff=24) | bc++=33386 bc--=46 inv=17
[DSB @ 400000 calls] bc=12 isBypassOn=false| real=35 virt=49739 notrack=350225 | touchRes=44003(eff=22,ineff=43981) resetRes=318(ineff=1,eff=317) | bc++=43982 bc--=339 inv=69
[DSB @ 500000 calls] bc=12 isBypassOn=false| real=874 virt=62079 notrack=437046 | touchRes=53828(eff=87,ineff=53741) resetRes=479(ineff=4,eff=475) | bc++=53745 bc--=562 inv=720
[DSB @ 600000 calls] bc=11 isBypassOn=true| real=877 virt=74596 notrack=524526 | touchRes=64036(eff=87,ineff=63949) resetRes=849(ineff=4,eff=845) | bc++=63953 bc--=932 inv=835
[DSB @ 700000 calls] bc=12 isBypassOn=false| real=886 virt=86975 notrack=612138 | touchRes=73465(eff=89,ineff=73376) resetRes=1393(ineff=5,eff=1388) | bc++=73381 bc--=1477 inv=1064
[DSB @ 800000 calls] bc=12 isBypassOn=false| real=886 virt=99486 notrack=699627 | touchRes=85216(eff=89,ineff=85127) resetRes=1409(ineff=5,eff=1404) | bc++=85132 bc--=1493 inv=1072
[DSB @ 900000 calls] bc=12 isBypassOn=false| real=887 virt=111944 notrack=787168 | touchRes=96582(eff=89,ineff=96493) resetRes=1421(ineff=5,eff=1416) | bc++=96498 bc--=1505 inv=1086
[DSB @ 1000000 calls] bc=12 isBypassOn=false| real=888 virt=124620 notrack=874491 | touchRes=107236(eff=89,ineff=107147) resetRes=1611(ineff=5,eff=1606) | bc++=107152 bc--=1695 inv=1153
[DSB @ 1100000 calls] bc=12 isBypassOn=false| real=2964 virt=136910 notrack=960125 | touchRes=117420(eff=389,ineff=117031) resetRes=2176(ineff=210,eff=1966) | bc++=117241 bc--=2355 inv=2457
Exiting @ tick 28683161818500 because a thread reached the max instruction count
