warn: The `get_runtime_isa` function is deprecated. Please migrate away from using this function.
warn: The se.py script is deprecated. It will be removed in future releases of  gem5.
warn: The `get_runtime_isa` function is deprecated. Please migrate away from using this function.
Global frequency set at 1000000000000 ticks per second
src/base/statistics.hh:279: warn: One of the stats is a legacy stat. Legacy stat is a stat that does not belong to any statistics::Group. Legacy stat is deprecated.
src/base/remote_gdb.cc:418: warn: Sockets disabled, not accepting gdb connections
src/sim/process.cc:396: warn: Checkpoints for pipes, device drivers and sockets do not work.
gem5 Simulator System.  https://www.gem5.org
gem5 is copyrighted software; use the --copyright option for details.

gem5 version 23.0.0.1
gem5 compiled Apr  6 2026 01:50:35
gem5 started Apr  6 2026 13:20:12
gem5 executing on b49ce2a326be, pid 215949
command line: /opt/gem5/build/X86/gem5.opt --outdir=/workspace/results_l3/2MB/policy1Config1/omnetpp /workspace/configs/run_spec_l3.py --rp-type=DSBRP --l3-size=2MB --l3-assoc=16 --cpu-type=DerivO3CPU --cmd=./omnetpp_s_base.gem5-x86 '--options=-c General -r 0' --mem-size=8GB --maxinst=250000000 --caches --l2cache --l1d_size=32kB --l1i_size=32kB --l1d_assoc=8 --l1i_assoc=8 --l2_size=256kB --l2_assoc=8 --checkpoint-restore=1 --checkpoint-dir=/workspace/checkpoints/omnetpp/m5out --restore-with-cpu=AtomicSimpleCPU --standard-switch=1 --warmup-insts=50000000 --dsb-enable-bypass=false --dsb-enable-aging=true --dsb-bypass-counter=6 --dsb-virtual-bypass-counter=4 --dsb-random-promotion=0 --dsb-minimum-bypass-counter=8

info: Standard input is not a terminal, disabling listeners.
Replacement policy: DSBRP
L1I size: 32kB, assoc: 8
L1D size: 32kB, assoc: 8
L2 size: 256kB, assoc: 8
L3 size: 2MB, L3 assoc: 16
Switch at instruction count:1
src/sim/simulate.cc:194: info: Entering event queue @ 27633443439000.  Starting simulation...
src/sim/power_state.cc:105: warn: PowerState: Already in the requested power state, request ignored
Switched CPUS @ tick 27633443440000
switching cpus
Switch at instruction count:50000000
src/sim/simulate.cc:194: info: Entering event queue @ 27633443440000.  Starting simulation...
[DSB @ 100000 calls] bc=8 isBypassOn=false| real=0 virt=6236 notrack=93763 | touchRes=5555(eff=0,ineff=5555) resetRes=36(ineff=0,eff=36) | bc++=5555 bc--=36 inv=0
[DSB @ 200000 calls] bc=8 isBypassOn=false| real=0 virt=12537 notrack=187462 | touchRes=11331(eff=0,ineff=11331) resetRes=91(ineff=0,eff=91) | bc++=11331 bc--=91 inv=3
[DSB @ 300000 calls] bc=8 isBypassOn=false| real=0 virt=18724 notrack=281275 | touchRes=16976(eff=0,ineff=16976) resetRes=159(ineff=0,eff=159) | bc++=16976 bc--=159 inv=17
[DSB @ 400000 calls] bc=8 isBypassOn=false| real=0 virt=24930 notrack=375069 | touchRes=22627(eff=0,ineff=22627) resetRes=225(ineff=0,eff=225) | bc++=22627 bc--=225 inv=33
src/sim/simulate.cc:194: info: Entering event queue @ 27784051613500.  Starting simulation...
Switching CPUS @ tick 27784051613500
Simulation ends instruction count:250000000
switching cpus
**** REAL SIMULATION ****
src/sim/simulate.cc:194: info: Entering event queue @ 27784052038500.  Starting simulation...
[DSB @ 500000 calls] bc=8 isBypassOn=false| real=0 virt=31235 notrack=468764 | touchRes=28427(eff=0,ineff=28427) resetRes=297(ineff=0,eff=297) | bc++=28427 bc--=297 inv=65
[DSB @ 600000 calls] bc=8 isBypassOn=false| real=0 virt=37456 notrack=562543 | touchRes=34104(eff=0,ineff=34104) resetRes=378(ineff=0,eff=378) | bc++=34104 bc--=378 inv=102
[DSB @ 700000 calls] bc=8 isBypassOn=false| real=0 virt=43628 notrack=656371 | touchRes=39727(eff=0,ineff=39727) resetRes=450(ineff=0,eff=450) | bc++=39727 bc--=450 inv=145
[DSB @ 800000 calls] bc=8 isBypassOn=false| real=0 virt=49967 notrack=750032 | touchRes=45445(eff=0,ineff=45445) resetRes=533(ineff=0,eff=533) | bc++=45445 bc--=533 inv=197
[DSB @ 900000 calls] bc=8 isBypassOn=false| real=0 virt=56345 notrack=843654 | touchRes=51252(eff=0,ineff=51252) resetRes=626(ineff=0,eff=626) | bc++=51252 bc--=626 inv=243
[DSB @ 1000000 calls] bc=8 isBypassOn=false| real=0 virt=62659 notrack=937340 | touchRes=56944(eff=0,ineff=56944) resetRes=719(ineff=0,eff=719) | bc++=56944 bc--=719 inv=298
[DSB @ 1100000 calls] bc=8 isBypassOn=false| real=0 virt=69005 notrack=1030994 | touchRes=62714(eff=0,ineff=62714) resetRes=806(ineff=0,eff=806) | bc++=62714 bc--=806 inv=345
[DSB @ 1200000 calls] bc=8 isBypassOn=false| real=0 virt=75266 notrack=1124733 | touchRes=68401(eff=0,ineff=68401) resetRes=900(ineff=0,eff=900) | bc++=68401 bc--=900 inv=409
[DSB @ 1300000 calls] bc=8 isBypassOn=false| real=0 virt=81510 notrack=1218489 | touchRes=74065(eff=0,ineff=74065) resetRes=986(ineff=0,eff=986) | bc++=74065 bc--=986 inv=467
[DSB @ 1400000 calls] bc=8 isBypassOn=false| real=0 virt=87653 notrack=1312346 | touchRes=79567(eff=0,ineff=79567) resetRes=1091(ineff=0,eff=1091) | bc++=79567 bc--=1091 inv=532
[DSB @ 1500000 calls] bc=8 isBypassOn=false| real=0 virt=93894 notrack=1406105 | touchRes=85210(eff=0,ineff=85210) resetRes=1169(ineff=0,eff=1169) | bc++=85210 bc--=1169 inv=597
[DSB @ 1600000 calls] bc=8 isBypassOn=false| real=0 virt=100069 notrack=1499930 | touchRes=90803(eff=0,ineff=90803) resetRes=1251(ineff=0,eff=1251) | bc++=90803 bc--=1251 inv=660
[DSB @ 1700000 calls] bc=8 isBypassOn=false| real=0 virt=106248 notrack=1593751 | touchRes=96381(eff=0,ineff=96381) resetRes=1367(ineff=0,eff=1367) | bc++=96381 bc--=1367 inv=708
[DSB @ 1800000 calls] bc=8 isBypassOn=false| real=0 virt=112513 notrack=1687486 | touchRes=102006(eff=0,ineff=102006) resetRes=1493(ineff=0,eff=1493) | bc++=102006 bc--=1493 inv=771
[DSB @ 1900000 calls] bc=8 isBypassOn=false| real=0 virt=118612 notrack=1781387 | touchRes=107506(eff=0,ineff=107506) resetRes=1576(ineff=0,eff=1576) | bc++=107506 bc--=1576 inv=839
[DSB @ 2000000 calls] bc=8 isBypassOn=false| real=0 virt=124904 notrack=1875095 | touchRes=113173(eff=0,ineff=113173) resetRes=1678(ineff=0,eff=1678) | bc++=113173 bc--=1678 inv=896
[DSB @ 2100000 calls] bc=8 isBypassOn=false| real=0 virt=131102 notrack=1968897 | touchRes=118820(eff=0,ineff=118820) resetRes=1750(ineff=0,eff=1750) | bc++=118820 bc--=1750 inv=948
[DSB @ 2200000 calls] bc=8 isBypassOn=false| real=0 virt=137365 notrack=2062634 | touchRes=124469(eff=0,ineff=124469) resetRes=1850(ineff=0,eff=1850) | bc++=124469 bc--=1850 inv=999
[DSB @ 2300000 calls] bc=8 isBypassOn=false| real=0 virt=143444 notrack=2156555 | touchRes=129971(eff=0,ineff=129971) resetRes=1941(ineff=0,eff=1941) | bc++=129971 bc--=1941 inv=1062
[DSB @ 2400000 calls] bc=8 isBypassOn=false| real=0 virt=149614 notrack=2250385 | touchRes=135601(eff=0,ineff=135601) resetRes=2019(ineff=0,eff=2019) | bc++=135601 bc--=2019 inv=1101
[DSB @ 2500000 calls] bc=8 isBypassOn=false| real=0 virt=155789 notrack=2344210 | touchRes=141237(eff=0,ineff=141237) resetRes=2084(ineff=0,eff=2084) | bc++=141237 bc--=2084 inv=1158
[DSB @ 2600000 calls] bc=8 isBypassOn=false| real=0 virt=161925 notrack=2438074 | touchRes=146857(eff=0,ineff=146857) resetRes=2147(ineff=0,eff=2147) | bc++=146857 bc--=2147 inv=1200
[DSB @ 2700000 calls] bc=8 isBypassOn=false| real=0 virt=168038 notrack=2531961 | touchRes=152431(eff=0,ineff=152431) resetRes=2233(ineff=0,eff=2233) | bc++=152431 bc--=2233 inv=1243
Exiting @ tick 28028676831000 because a thread reached the max instruction count
