warn: The `get_runtime_isa` function is deprecated. Please migrate away from using this function.
warn: The se.py script is deprecated. It will be removed in future releases of  gem5.
warn: The `get_runtime_isa` function is deprecated. Please migrate away from using this function.
Global frequency set at 1000000000000 ticks per second
src/base/statistics.hh:279: warn: One of the stats is a legacy stat. Legacy stat is a stat that does not belong to any statistics::Group. Legacy stat is deprecated.
src/base/remote_gdb.cc:418: warn: Sockets disabled, not accepting gdb connections
src/sim/process.cc:396: warn: Checkpoints for pipes, device drivers and sockets do not work.
gem5 Simulator System.  https://www.gem5.org
gem5 is copyrighted software; use the --copyright option for details.

gem5 version 23.0.0.1
gem5 compiled Apr  6 2026 01:50:35
gem5 started Apr  6 2026 05:04:29
gem5 executing on b49ce2a326be, pid 129609
command line: /opt/gem5/build/X86/gem5.opt --outdir=/workspace/results_l3/1MB/policy0Config3/wrf /workspace/configs/run_spec_l3.py --rp-type=DSBRP --l3-size=1MB --l3-assoc=16 --cpu-type=DerivO3CPU --cmd=./wrf_s_base.gem5-x86 --options= --mem-size=8GB --maxinst=250000000 --caches --l2cache --l1d_size=32kB --l1i_size=32kB --l1d_assoc=8 --l1i_assoc=8 --l2_size=256kB --l2_assoc=8 --checkpoint-restore=1 --checkpoint-dir=/workspace/checkpoints/wrf/m5out --restore-with-cpu=AtomicSimpleCPU --standard-switch=1 --warmup-insts=50000000 --dsb-enable-bypass=true --dsb-enable-aging=false --dsb-bypass-counter=3 --dsb-virtual-bypass-counter=3 --dsb-random-promotion=0 --dsb-minimum-bypass-counter=12

info: Standard input is not a terminal, disabling listeners.
Replacement policy: DSBRP
L1I size: 32kB, assoc: 8
L1D size: 32kB, assoc: 8
L2 size: 256kB, assoc: 8
L3 size: 1MB, L3 assoc: 16
Switch at instruction count:1
src/sim/simulate.cc:194: info: Entering event queue @ 27778733914000.  Starting simulation...
src/sim/simulate.cc:194: info: Entering event queue @ 27778733915500.  Starting simulation...
src/sim/power_state.cc:105: warn: PowerState: Already in the requested power state, request ignored
Switched CPUS @ tick 27778733915500
switching cpus
Switch at instruction count:50000000
src/sim/simulate.cc:194: info: Entering event queue @ 27778733916000.  Starting simulation...
[DSB @ 100000 calls] bc=0 isBypassOn=true| real=79139 virt=2661 notrack=18199 | touchRes=3483(eff=2516,ineff=967) resetRes=102(ineff=42,eff=60) | bc++=1009 bc--=2576 inv=183
[DSB @ 200000 calls] bc=7 isBypassOn=true| real=122885 virt=9721 notrack=67393 | touchRes=3524(eff=2555,ineff=969) resetRes=138(ineff=70,eff=68) | bc++=1039 bc--=2623 inv=7158
[DSB @ 300000 calls] bc=0 isBypassOn=true| real=165133 virt=16986 notrack=117880 | touchRes=4885(eff=3892,ineff=993) resetRes=233(ineff=127,eff=106) | bc++=1120 bc--=3998 inv=15386
[DSB @ 400000 calls] bc=5 isBypassOn=true| real=194619 virt=25912 notrack=179468 | touchRes=5637(eff=4640,ineff=997) resetRes=278(ineff=154,eff=124) | bc++=1151 bc--=4764 inv=25308
[DSB @ 500000 calls] bc=0 isBypassOn=true| real=202636 virt=37575 notrack=259788 | touchRes=6153(eff=5156,ineff=997) resetRes=282(ineff=154,eff=128) | bc++=1151 bc--=5284 inv=38454
[DSB @ 600000 calls] bc=0 isBypassOn=true| real=302635 virt=37576 notrack=259788 | touchRes=6270(eff=5273,ineff=997) resetRes=282(ineff=154,eff=128) | bc++=1151 bc--=5401 inv=38454
[DSB @ 700000 calls] bc=0 isBypassOn=true| real=402635 virt=37576 notrack=259788 | touchRes=6278(eff=5281,ineff=997) resetRes=282(ineff=154,eff=128) | bc++=1151 bc--=5409 inv=38454
[DSB @ 800000 calls] bc=11 isBypassOn=true| real=475100 virt=40918 notrack=283981 | touchRes=6456(eff=5283,ineff=1173) resetRes=506(ineff=269,eff=237) | bc++=1442 bc--=5520 inv=41862
[DSB @ 900000 calls] bc=7 isBypassOn=true| real=475814 virt=53249 notrack=370936 | touchRes=6480(eff=5283,ineff=1197) resetRes=529(ineff=269,eff=260) | bc++=1466 bc--=5543 inv=53178
src/sim/simulate.cc:194: info: Entering event queue @ 27944291909500.  Starting simulation...
Switching CPUS @ tick 27944291909500
Simulation ends instruction count:250000000
switching cpus
**** REAL SIMULATION ****
src/sim/simulate.cc:194: info: Entering event queue @ 27944291998250.  Starting simulation...
[DSB @ 1000000 calls] bc=0 isBypassOn=true| real=510161 virt=61373 notrack=428465 | touchRes=7770(eff=6571,ineff=1199) resetRes=536(ineff=270,eff=266) | bc++=1469 bc--=6837 inv=61492
[DSB @ 1100000 calls] bc=0 isBypassOn=true| real=610159 virt=61373 notrack=428467 | touchRes=8015(eff=6816,ineff=1199) resetRes=536(ineff=270,eff=266) | bc++=1469 bc--=7082 inv=61494
[DSB @ 1200000 calls] bc=12 isBypassOn=false| real=702062 virt=62337 notrack=435600 | touchRes=8036(eff=6832,ineff=1204) resetRes=623(ineff=354,eff=269) | bc++=1558 bc--=7101 inv=63058
[DSB @ 1300000 calls] bc=0 isBypassOn=true| real=736280 virt=70578 notrack=493141 | touchRes=9059(eff=7853,ineff=1206) resetRes=636(ineff=354,eff=282) | bc++=1560 bc--=8135 inv=70320
[DSB @ 1400000 calls] bc=0 isBypassOn=true| real=836279 virt=70578 notrack=493142 | touchRes=9059(eff=7853,ineff=1206) resetRes=636(ineff=354,eff=282) | bc++=1560 bc--=8135 inv=70321
[DSB @ 1500000 calls] bc=0 isBypassOn=true| real=921365 virt=72476 notrack=506158 | touchRes=9075(eff=7860,ineff=1215) resetRes=663(ineff=364,eff=299) | bc++=1579 bc--=8159 inv=72926
[DSB @ 1600000 calls] bc=2 isBypassOn=true| real=1016395 virt=73103 notrack=510501 | touchRes=11476(eff=10260,ineff=1216) resetRes=677(ineff=371,eff=306) | bc++=1587 bc--=10566 inv=75604
[DSB @ 1700000 calls] bc=0 isBypassOn=true| real=1106985 virt=74284 notrack=518730 | touchRes=13542(eff=12326,ineff=1216) resetRes=683(ineff=374,eff=309) | bc++=1590 bc--=12635 inv=79634
[DSB @ 1800000 calls] bc=12 isBypassOn=false| real=1163206 virt=79730 notrack=557063 | touchRes=14610(eff=13392,ineff=1218) resetRes=741(ineff=415,eff=326) | bc++=1633 bc--=13718 inv=86047
[DSB @ 1900000 calls] bc=0 isBypassOn=true| real=1239584 virt=82733 notrack=577682 | touchRes=17119(eff=15901,ineff=1218) resetRes=769(ineff=422,eff=347) | bc++=1640 bc--=16248 inv=90260
[DSB @ 2000000 calls] bc=0 isBypassOn=true| real=1337772 virt=82941 notrack=579286 | touchRes=18291(eff=17073,ineff=1218) resetRes=787(ineff=437,eff=350) | bc++=1655 bc--=17423 inv=91439
[DSB @ 2100000 calls] bc=7 isBypassOn=true| real=1338926 virt=95309 notrack=665764 | touchRes=18306(eff=17075,ineff=1231) resetRes=822(ineff=463,eff=359) | bc++=1694 bc--=17434 inv=103547
[DSB @ 2200000 calls] bc=0 isBypassOn=true| real=1386678 virt=101791 notrack=711530 | touchRes=19966(eff=18722,ineff=1244) resetRes=927(ineff=526,eff=401) | bc++=1770 bc--=19123 inv=111928
[DSB @ 2300000 calls] bc=9 isBypassOn=true| real=1453263 virt=106043 notrack=740693 | touchRes=19991(eff=18746,ineff=1245) resetRes=937(ineff=535,eff=402) | bc++=1780 bc--=19148 inv=116439
[DSB @ 2400000 calls] bc=0 isBypassOn=true| real=1480102 virt=115158 notrack=804739 | touchRes=20927(eff=19682,ineff=1245) resetRes=940(ineff=535,eff=405) | bc++=1780 bc--=20087 inv=125103
[DSB @ 2500000 calls] bc=0 isBypassOn=true| real=1576581 virt=115620 notrack=807798 | touchRes=21786(eff=20541,ineff=1245) resetRes=942(ineff=537,eff=405) | bc++=1782 bc--=20946 inv=126596
[DSB @ 2600000 calls] bc=3 isBypassOn=true| real=1651115 virt=118849 notrack=830035 | touchRes=22795(eff=21549,ineff=1246) resetRes=1016(ineff=594,eff=422) | bc++=1840 bc--=21971 inv=133556
[DSB @ 2700000 calls] bc=10 isBypassOn=true| real=1651301 virt=131403 notrack=917295 | touchRes=22796(eff=21550,ineff=1246) resetRes=1024(ineff=602,eff=422) | bc++=1848 bc--=21972 inv=144999
[DSB @ 2800000 calls] bc=9 isBypassOn=true| real=1651418 virt=143902 notrack=1004679 | touchRes=22796(eff=21550,ineff=1246) resetRes=1025(ineff=602,eff=423) | bc++=1848 bc--=21973 inv=156002
[DSB @ 2900000 calls] bc=1 isBypassOn=true| real=1743692 virt=144866 notrack=1011441 | touchRes=25084(eff=23838,ineff=1246) resetRes=1039(ineff=606,eff=433) | bc++=1852 bc--=24271 inv=158943
[DSB @ 3000000 calls] bc=7 isBypassOn=true| real=1827175 virt=147003 notrack=1025821 | touchRes=26976(eff=25724,ineff=1252) resetRes=1120(ineff=638,eff=482) | bc++=1890 bc--=26206 inv=162889
[DSB @ 3100000 calls] bc=0 isBypassOn=true| real=1842006 virt=157622 notrack=1100371 | touchRes=27752(eff=26500,ineff=1252) resetRes=1161(ineff=652,eff=509) | bc++=1904 bc--=27009 inv=173372
[DSB @ 3200000 calls] bc=0 isBypassOn=true| real=1934663 virt=158543 notrack=1106793 | touchRes=30021(eff=28769,ineff=1252) resetRes=1176(ineff=661,eff=515) | bc++=1913 bc--=29284 inv=176151
[DSB @ 3300000 calls] bc=12 isBypassOn=false| real=2032077 virt=158883 notrack=1109039 | touchRes=30032(eff=28778,ineff=1254) resetRes=1226(ineff=711,eff=515) | bc++=1965 bc--=29293 inv=177193
[DSB @ 3400000 calls] bc=11 isBypassOn=true| real=2039933 virt=170432 notrack=1189634 | touchRes=30714(eff=29451,ineff=1263) resetRes=1316(ineff=780,eff=536) | bc++=2043 bc--=29987 inv=188354
Exiting @ tick 28117668256000 because a thread reached the max instruction count
