warn: The `get_runtime_isa` function is deprecated. Please migrate away from using this function.
warn: The se.py script is deprecated. It will be removed in future releases of  gem5.
warn: The `get_runtime_isa` function is deprecated. Please migrate away from using this function.
Global frequency set at 1000000000000 ticks per second
src/base/statistics.hh:279: warn: One of the stats is a legacy stat. Legacy stat is a stat that does not belong to any statistics::Group. Legacy stat is deprecated.
src/base/remote_gdb.cc:418: warn: Sockets disabled, not accepting gdb connections
src/sim/process.cc:396: warn: Checkpoints for pipes, device drivers and sockets do not work.
gem5 Simulator System.  https://www.gem5.org
gem5 is copyrighted software; use the --copyright option for details.

gem5 version 23.0.0.1
gem5 compiled Apr  6 2026 01:50:35
gem5 started Apr  6 2026 05:04:29
gem5 executing on b49ce2a326be, pid 129604
command line: /opt/gem5/build/X86/gem5.opt --outdir=/workspace/results_l3/1MB/policy0Config3/lbm /workspace/configs/run_spec_l3.py --rp-type=DSBRP --l3-size=1MB --l3-assoc=16 --cpu-type=DerivO3CPU --cmd=./lbm_s_base.gem5-x86 '--options=2000 reference.dat 0 0 200_200_260_ldc.of' --mem-size=8GB --maxinst=250000000 --caches --l2cache --l1d_size=32kB --l1i_size=32kB --l1d_assoc=8 --l1i_assoc=8 --l2_size=256kB --l2_assoc=8 --checkpoint-restore=1 --checkpoint-dir=/workspace/checkpoints/lbm/m5out --restore-with-cpu=AtomicSimpleCPU --standard-switch=1 --warmup-insts=50000000 --dsb-enable-bypass=true --dsb-enable-aging=false --dsb-bypass-counter=3 --dsb-virtual-bypass-counter=3 --dsb-random-promotion=0 --dsb-minimum-bypass-counter=12

info: Standard input is not a terminal, disabling listeners.
Replacement policy: DSBRP
L1I size: 32kB, assoc: 8
L1D size: 32kB, assoc: 8
L2 size: 256kB, assoc: 8
L3 size: 1MB, L3 assoc: 16
Switch at instruction count:1
src/sim/simulate.cc:194: info: Entering event queue @ 25728322212500.  Starting simulation...
src/sim/simulate.cc:194: info: Entering event queue @ 25728322214000.  Starting simulation...
src/sim/power_state.cc:105: warn: PowerState: Already in the requested power state, request ignored
Switched CPUS @ tick 25728322214000
switching cpus
Switch at instruction count:50000000
src/sim/simulate.cc:194: info: Entering event queue @ 25728322215000.  Starting simulation...
[DSB @ 100000 calls] bc=12 isBypassOn=false| real=26045 virt=9206 notrack=64748 | touchRes=2738(eff=1511,ineff=1227) resetRes=1129(ineff=791,eff=338) | bc++=2018 bc--=1849 inv=12466
[DSB @ 200000 calls] bc=1 isBypassOn=true| real=42874 virt=19542 notrack=137583 | touchRes=3385(eff=1862,ineff=1523) resetRes=1874(ineff=1235,eff=639) | bc++=2758 bc--=2501 inv=25936
[DSB @ 300000 calls] bc=2 isBypassOn=true| real=74891 virt=28028 notrack=197080 | touchRes=4291(eff=2536,ineff=1755) resetRes=3089(ineff=2159,eff=930) | bc++=3914 bc--=3466 inv=43798
[DSB @ 400000 calls] bc=12 isBypassOn=false| real=99425 virt=37482 notrack=263092 | touchRes=5120(eff=3092,ineff=2028) resetRes=4108(ineff=2883,eff=1225) | bc++=4911 bc--=4317 inv=60450
[DSB @ 500000 calls] bc=1 isBypassOn=true| real=136139 virt=45403 notrack=318457 | touchRes=6128(eff=3890,ineff=2238) resetRes=5423(ineff=3881,eff=1542) | bc++=6119 bc--=5432 inv=78359
[DSB @ 600000 calls] bc=12 isBypassOn=false| real=155903 virt=55611 notrack=388485 | touchRes=6829(eff=4346,ineff=2483) resetRes=6323(ineff=4477,eff=1846) | bc++=6960 bc--=6192 inv=93465
[DSB @ 700000 calls] bc=12 isBypassOn=true| real=164212 virt=67061 notrack=468726 | touchRes=7326(eff=4527,ineff=2799) resetRes=6891(ineff=4742,eff=2149) | bc++=7541 bc--=6676 inv=106347
[DSB @ 800000 calls] bc=12 isBypassOn=false| real=195169 virt=75661 notrack=529169 | touchRes=8180(eff=5160,ineff=3020) resetRes=8084(ineff=5606,eff=2478) | bc++=8626 bc--=7638 inv=123319
[DSB @ 900000 calls] bc=1 isBypassOn=true| real=217978 virt=85244 notrack=596777 | touchRes=8919(eff=5631,ineff=3288) resetRes=9007(ineff=6234,eff=2773) | bc++=9522 bc--=8404 inv=139362
[DSB @ 1000000 calls] bc=5 isBypassOn=true| real=237864 virt=95081 notrack=667054 | touchRes=9643(eff=6092,ineff=3551) resetRes=9877(ineff=6779,eff=3098) | bc++=10330 bc--=9190 inv=153719
[DSB @ 1100000 calls] bc=12 isBypassOn=false| real=256931 virt=105134 notrack=737934 | touchRes=10320(eff=6478,ineff=3842) resetRes=10802(ineff=7387,eff=3415) | bc++=11229 bc--=9893 inv=168925
[DSB @ 1200000 calls] bc=6 isBypassOn=true| real=272831 virt=115530 notrack=811638 | touchRes=10940(eff=6800,ineff=4140) resetRes=11578(ineff=7854,eff=3724) | bc++=11994 bc--=10524 inv=183765
[DSB @ 1300000 calls] bc=1 isBypassOn=true| real=306740 virt=123679 notrack=869580 | touchRes=11869(eff=7516,ineff=4353) resetRes=12821(ineff=8786,eff=4035) | bc++=13139 bc--=11551 inv=201261
[DSB @ 1400000 calls] bc=12 isBypassOn=false| real=336668 virt=132465 notrack=930866 | touchRes=12757(eff=8179,ineff=4578) resetRes=13923(ineff=9617,eff=4306) | bc++=14195 bc--=12485 inv=219049
[DSB @ 1500000 calls] bc=12 isBypassOn=false| real=361016 virt=141969 notrack=997014 | touchRes=13438(eff=8624,ineff=4814) resetRes=14939(ineff=10334,eff=4605) | bc++=15148 bc--=13229 inv=235328
[DSB @ 1600000 calls] bc=12 isBypassOn=false| real=376408 virt=152436 notrack=1071155 | touchRes=14009(eff=8927,ineff=5082) resetRes=15716(ineff=10800,eff=4916) | bc++=15882 bc--=13843 inv=250482
[DSB @ 1700000 calls] bc=0 isBypassOn=true| real=406872 virt=161241 notrack=1131886 | touchRes=14823(eff=9525,ineff=5298) resetRes=16845(ineff=11607,eff=5238) | bc++=16905 bc--=14763 inv=267325
[DSB @ 1800000 calls] bc=0 isBypassOn=true| real=424015 virt=171646 notrack=1204338 | touchRes=15528(eff=9940,ineff=5588) resetRes=17692(ineff=12123,eff=5569) | bc++=17711 bc--=15509 inv=282021
[DSB @ 1900000 calls] bc=4 isBypassOn=true| real=462452 virt=179369 notrack=1258178 | touchRes=16567(eff=10776,ineff=5791) resetRes=19105(ineff=13189,eff=5916) | bc++=18980 bc--=16692 inv=300455
src/sim/simulate.cc:194: info: Entering event queue @ 25957355855500.  Starting simulation...
Switching CPUS @ tick 25957355855500
Simulation ends instruction count:250000000
switching cpus
**** REAL SIMULATION ****
src/sim/simulate.cc:194: info: Entering event queue @ 25957355984250.  Starting simulation...
[DSB @ 2000000 calls] bc=10 isBypassOn=true| real=480505 virt=189713 notrack=1329781 | touchRes=17212(eff=11179,ineff=6033) resetRes=19986(ineff=13759,eff=6227) | bc++=19792 bc--=17406 inv=315788
[DSB @ 2100000 calls] bc=5 isBypassOn=true| real=511700 virt=198326 notrack=1389973 | touchRes=18137(eff=11879,ineff=6258) resetRes=21149(ineff=14593,eff=6556) | bc++=20851 bc--=18435 inv=333059
[DSB @ 2200000 calls] bc=1 isBypassOn=true| real=527891 virt=208916 notrack=1463192 | touchRes=18795(eff=12239,ineff=6556) resetRes=21940(ineff=15065,eff=6875) | bc++=21621 bc--=19114 inv=347497
[DSB @ 2300000 calls] bc=12 isBypassOn=false| real=548154 virt=218889 notrack=1532956 | touchRes=19498(eff=12673,ineff=6825) resetRes=22854(ineff=15684,eff=7170) | bc++=22509 bc--=19843 inv=363161
[DSB @ 2400000 calls] bc=9 isBypassOn=true| real=554306 virt=230578 notrack=1615115 | touchRes=19932(eff=12786,ineff=7146) resetRes=23347(ineff=15852,eff=7495) | bc++=22998 bc--=20281 inv=375349
[DSB @ 2500000 calls] bc=12 isBypassOn=false| real=563598 virt=241858 notrack=1694543 | touchRes=20462(eff=13011,ineff=7451) resetRes=23915(ineff=16130,eff=7785) | bc++=23581 bc--=20796 inv=388321
[DSB @ 2600000 calls] bc=5 isBypassOn=true| real=593937 virt=250660 notrack=1755402 | touchRes=21300(eff=13611,ineff=7689) resetRes=25099(ineff=16975,eff=8124) | bc++=24664 bc--=21735 inv=406051
[DSB @ 2700000 calls] bc=0 isBypassOn=true| real=621522 virt=259703 notrack=1818774 | touchRes=22068(eff=14169,ineff=7899) resetRes=26138(ineff=17726,eff=8412) | bc++=25625 bc--=22581 inv=422861
[DSB @ 2800000 calls] bc=12 isBypassOn=false| real=656649 virt=267752 notrack=1875598 | touchRes=23032(eff=14929,ineff=8103) resetRes=27478(ineff=18765,eff=8713) | bc++=26868 bc--=23642 inv=441400
[DSB @ 2900000 calls] bc=12 isBypassOn=false| real=677769 virt=277639 notrack=1944591 | touchRes=23752(eff=15384,ineff=8368) resetRes=28346(ineff=19339,eff=9007) | bc++=27707 bc--=24391 inv=456595
[DSB @ 3000000 calls] bc=12 isBypassOn=false| real=701288 virt=286978 notrack=2011733 | touchRes=24516(eff=15891,ineff=8625) resetRes=29338(ineff=20027,eff=9311) | bc++=28652 bc--=25202 inv=472381
[DSB @ 3100000 calls] bc=1 isBypassOn=true| real=708838 virt=298501 notrack=2092660 | touchRes=24980(eff=16046,ineff=8934) resetRes=29783(ineff=20185,eff=9598) | bc++=29119 bc--=25644 inv=484594
[DSB @ 3200000 calls] bc=10 isBypassOn=true| real=738525 virt=307310 notrack=2154164 | touchRes=25818(eff=16679,ineff=9139) resetRes=30971(ineff=21093,eff=9878) | bc++=30232 bc--=26557 inv=502263
[DSB @ 3300000 calls] bc=12 isBypassOn=true| real=756906 virt=317497 notrack=2225596 | touchRes=26483(eff=17066,ineff=9417) resetRes=31775(ineff=21602,eff=10173) | bc++=31019 bc--=27239 inv=517343
[DSB @ 3400000 calls] bc=10 isBypassOn=true| real=765408 virt=328841 notrack=2305750 | touchRes=26995(eff=17267,ineff=9728) resetRes=32324(ineff=21834,eff=10490) | bc++=31562 bc--=27757 inv=529811
[DSB @ 3500000 calls] bc=11 isBypassOn=true| real=772365 virt=340467 notrack=2387167 | touchRes=27438(eff=17385,ineff=10053) resetRes=32841(ineff=22027,eff=10814) | bc++=32080 bc--=28199 inv=542415
[DSB @ 3600000 calls] bc=10 isBypassOn=true| real=786100 virt=351379 notrack=2462520 | touchRes=28007(eff=17682,ineff=10325) resetRes=33541(ineff=22418,eff=11123) | bc++=32743 bc--=28805 inv=556272
[DSB @ 3700000 calls] bc=12 isBypassOn=false| real=803693 virt=361618 notrack=2534688 | touchRes=28636(eff=18032,ineff=10604) resetRes=34362(ineff=22923,eff=11439) | bc++=33527 bc--=29471 inv=570973
[DSB @ 3800000 calls] bc=3 isBypassOn=true| real=828423 virt=371022 notrack=2600554 | touchRes=29440(eff=18583,ineff=10857) resetRes=35323(ineff=23589,eff=11734) | bc++=34446 bc--=30317 inv=586968
[DSB @ 3900000 calls] bc=0 isBypassOn=true| real=862538 virt=379290 notrack=2658171 | touchRes=30399(eff=19305,ineff=11094) resetRes=36664(ineff=24581,eff=12083) | bc++=35675 bc--=31388 inv=605691
[DSB @ 4000000 calls] bc=6 isBypassOn=true| real=895353 virt=387681 notrack=2716965 | touchRes=31387(eff=20073,ineff=11314) resetRes=37888(ineff=25510,eff=12378) | bc++=36824 bc--=32451 inv=623787
[DSB @ 4100000 calls] bc=12 isBypassOn=false| real=920800 virt=396866 notrack=2782333 | touchRes=32179(eff=20595,ineff=11584) resetRes=38933(ineff=26216,eff=12717) | bc++=37800 bc--=33312 inv=639287
[DSB @ 4200000 calls] bc=0 isBypassOn=true| real=957500 virt=404689 notrack=2837810 | touchRes=33222(eff=21441,ineff=11781) resetRes=40300(ineff=27269,eff=13031) | bc++=39050 bc--=34472 inv=657531
[DSB @ 4300000 calls] bc=10 isBypassOn=true| real=986899 virt=413495 notrack=2899605 | touchRes=34083(eff=22082,ineff=12001) resetRes=41433(ineff=28087,eff=13346) | bc++=40088 bc--=35428 inv=674884
[DSB @ 4400000 calls] bc=12 isBypassOn=true| real=1017655 virt=421998 notrack=2960346 | touchRes=35003(eff=22784,ineff=12219) resetRes=42593(ineff=28958,eff=13635) | bc++=41177 bc--=36419 inv=692487
[DSB @ 4500000 calls] bc=1 isBypassOn=true| real=1032104 virt=432686 notrack=3035209 | touchRes=35564(eff=23058,ineff=12506) resetRes=43285(ineff=29350,eff=13935) | bc++=41856 bc--=36993 inv=706285
[DSB @ 4600000 calls] bc=12 isBypassOn=false| real=1046350 virt=443344 notrack=3110305 | touchRes=36151(eff=23355,ineff=12796) resetRes=44019(ineff=29761,eff=14258) | bc++=42557 bc--=37613 inv=720583
[DSB @ 4700000 calls] bc=6 isBypassOn=true| real=1073610 virt=452392 notrack=3173997 | touchRes=37059(eff=23997,ineff=13062) resetRes=45133(ineff=30551,eff=14582) | bc++=43613 bc--=38579 inv=737517
[DSB @ 4800000 calls] bc=10 isBypassOn=true| real=1086947 virt=463214 notrack=3249838 | touchRes=37630(eff=24271,ineff=13359) resetRes=45836(ineff=30933,eff=14903) | bc++=44292 bc--=39174 inv=751428
[DSB @ 4900000 calls] bc=1 isBypassOn=true| real=1119283 virt=471722 notrack=3308994 | touchRes=38586(eff=25019,ineff=13567) resetRes=47056(ineff=31843,eff=15213) | bc++=45410 bc--=40232 inv=768558
[DSB @ 5000000 calls] bc=1 isBypassOn=true| real=1156214 virt=479613 notrack=3364172 | touchRes=39634(eff=25856,ineff=13778) resetRes=48365(ineff=32878,eff=15487) | bc++=46656 bc--=41343 inv=786933
[DSB @ 5100000 calls] bc=10 isBypassOn=true| real=1168926 virt=490679 notrack=3440394 | touchRes=40184(eff=26110,ineff=14074) resetRes=49037(ineff=33262,eff=15775) | bc++=47336 bc--=41885 inv=800936
[DSB @ 5200000 calls] bc=12 isBypassOn=false| real=1183560 virt=501245 notrack=3515194 | touchRes=40751(eff=26400,ineff=14351) resetRes=49771(ineff=33673,eff=16098) | bc++=48024 bc--=42498 inv=815027
[DSB @ 5300000 calls] bc=0 isBypassOn=true| real=1220536 virt=509093 notrack=3570370 | touchRes=41776(eff=27227,ineff=14549) resetRes=51061(ineff=34679,eff=16382) | bc++=49228 bc--=43609 inv=833136
[DSB @ 5400000 calls] bc=4 isBypassOn=true| real=1249926 virt=517901 notrack=3632172 | touchRes=42630(eff=27859,ineff=14771) resetRes=52165(ineff=35480,eff=16685) | bc++=50251 bc--=44544 inv=850099
[DSB @ 5500000 calls] bc=1 isBypassOn=true| real=1286731 virt=525887 notrack=3687381 | touchRes=43629(eff=28683,ineff=14946) resetRes=53521(ineff=36541,eff=16980) | bc++=51487 bc--=45663 inv=868441
[DSB @ 5600000 calls] bc=0 isBypassOn=true| real=1315326 virt=534857 notrack=3749816 | touchRes=44473(eff=29313,ineff=15160) resetRes=54623(ineff=37358,eff=17265) | bc++=52518 bc--=46578 inv=885239
[DSB @ 5700000 calls] bc=11 isBypassOn=true| real=1329690 virt=545566 notrack=3824743 | touchRes=45093(eff=29640,ineff=15453) resetRes=55339(ineff=37771,eff=17568) | bc++=53224 bc--=47208 inv=899012
[DSB @ 5800000 calls] bc=9 isBypassOn=true| real=1362733 virt=553923 notrack=3883343 | touchRes=46088(eff=30398,ineff=15690) resetRes=56551(ineff=38651,eff=17900) | bc++=54341 bc--=48298 inv=916217
[DSB @ 5900000 calls] bc=12 isBypassOn=true| real=1370006 virt=565498 notrack=3964495 | touchRes=46601(eff=30583,ineff=16018) resetRes=57099(ineff=38911,eff=18188) | bc++=54929 bc--=48771 inv=929236
[DSB @ 6000000 calls] bc=12 isBypassOn=true| real=1391784 virt=575252 notrack=4032963 | touchRes=47340(eff=31050,ineff=16290) resetRes=58029(ineff=39506,eff=18523) | bc++=55796 bc--=49573 inv=944814
[DSB @ 6100000 calls] bc=3 isBypassOn=true| real=1429029 virt=582963 notrack=4088007 | touchRes=48382(eff=31925,ineff=16457) resetRes=59398(ineff=40562,eff=18836) | bc++=57019 bc--=50761 inv=962717
[DSB @ 6200000 calls] bc=0 isBypassOn=true| real=1429844 virt=595374 notrack=4174781 | touchRes=48758(eff=31936,ineff=16822) resetRes=59732(ineff=40578,eff=19154) | bc++=57400 bc--=51090 inv=973485
[DSB @ 6300000 calls] bc=0 isBypassOn=true| real=1463731 virt=603676 notrack=4232592 | touchRes=49740(eff=32708,ineff=17032) resetRes=60965(ineff=41519,eff=19446) | bc++=58551 bc--=52154 inv=991295
[DSB @ 6400000 calls] bc=0 isBypassOn=true| real=1487629 virt=613231 notrack=4299139 | touchRes=50543(eff=33265,ineff=17278) resetRes=61979(ineff=42209,eff=19770) | bc++=59487 bc--=53035 inv=1007927
[DSB @ 6500000 calls] bc=12 isBypassOn=true| real=1498717 virt=624415 notrack=4376867 | touchRes=51107(eff=33522,ineff=17585) resetRes=62607(ineff=42536,eff=20071) | bc++=60121 bc--=53593 inv=1021030
[DSB @ 6600000 calls] bc=1 isBypassOn=true| real=1522244 virt=633779 notrack=4443976 | touchRes=51810(eff=33988,ineff=17822) resetRes=63576(ineff=43191,eff=20385) | bc++=61013 bc--=54373 inv=1036410
[DSB @ 6700000 calls] bc=0 isBypassOn=true| real=1560951 virt=641488 notrack=4497560 | touchRes=52823(eff=34817,ineff=18006) resetRes=64950(ineff=44252,eff=20698) | bc++=62258 bc--=55515 inv=1054494
[DSB @ 6800000 calls] bc=0 isBypassOn=true| real=1590132 virt=650270 notrack=4559597 | touchRes=53693(eff=35468,ineff=18225) resetRes=66147(ineff=45128,eff=21019) | bc++=63353 bc--=56487 inv=1071690
[DSB @ 6900000 calls] bc=8 isBypassOn=true| real=1611715 virt=660169 notrack=4628115 | touchRes=54432(eff=35955,ineff=18477) resetRes=67103(ineff=45766,eff=21337) | bc++=64243 bc--=57292 inv=1087217
[DSB @ 7000000 calls] bc=0 isBypassOn=true| real=1627726 virt=670625 notrack=4701648 | touchRes=55080(eff=36325,ineff=18755) resetRes=67856(ineff=46204,eff=21652) | bc++=64959 bc--=57977 inv=1101199
[DSB @ 7100000 calls] bc=0 isBypassOn=true| real=1656070 virt=679547 notrack=4764382 | touchRes=55898(eff=36913,ineff=18985) resetRes=68947(ineff=46997,eff=21950) | bc++=65982 bc--=58863 inv=1117858
[DSB @ 7200000 calls] bc=9 isBypassOn=true| real=1681220 virt=688943 notrack=4829836 | touchRes=56722(eff=37467,ineff=19255) resetRes=70003(ineff=47738,eff=22265) | bc++=66993 bc--=59732 inv=1134284
[DSB @ 7300000 calls] bc=12 isBypassOn=false| real=1710549 virt=697773 notrack=4891677 | touchRes=57607(eff=38109,ineff=19498) resetRes=71145(ineff=48550,eff=22595) | bc++=68048 bc--=60704 inv=1150808
[DSB @ 7400000 calls] bc=0 isBypassOn=true| real=1742331 virt=706371 notrack=4951297 | touchRes=58559(eff=38830,ineff=19729) resetRes=72339(ineff=49425,eff=22914) | bc++=69154 bc--=61744 inv=1167737
[DSB @ 7500000 calls] bc=0 isBypassOn=true| real=1747803 virt=717975 notrack=5034221 | touchRes=58983(eff=38941,ineff=20042) resetRes=72806(ineff=49599,eff=23207) | bc++=69641 bc--=62148 inv=1179920
[DSB @ 7600000 calls] bc=4 isBypassOn=true| real=1778585 virt=726670 notrack=5094744 | touchRes=59877(eff=39605,ineff=20272) resetRes=73994(ineff=50485,eff=23509) | bc++=70757 bc--=63114 inv=1197290
[DSB @ 7700000 calls] bc=8 isBypassOn=true| real=1796387 virt=736844 notrack=5166768 | touchRes=60547(eff=40001,ineff=20546) resetRes=74823(ineff=51002,eff=23821) | bc++=71548 bc--=63822 inv=1212040
[DSB @ 7800000 calls] bc=12 isBypassOn=false| real=1814843 virt=746955 notrack=5238201 | touchRes=61177(eff=40352,ineff=20825) resetRes=75666(ineff=51524,eff=24142) | bc++=72349 bc--=64494 inv=1226698
[DSB @ 7900000 calls] bc=0 isBypassOn=true| real=1852354 virt=754663 notrack=5292982 | touchRes=62146(eff=41148,ineff=20998) resetRes=77035(ineff=52576,eff=24459) | bc++=73574 bc--=65607 inv=1244788
[DSB @ 8000000 calls] bc=0 isBypassOn=true| real=1857420 virt=766462 notrack=5376117 | touchRes=62592(eff=41251,ineff=21341) resetRes=77500(ineff=52733,eff=24767) | bc++=74074 bc--=66018 inv=1256636
[DSB @ 8100000 calls] bc=9 isBypassOn=true| real=1865671 virt=777824 notrack=5456504 | touchRes=63091(eff=41423,ineff=21668) resetRes=78065(ineff=52989,eff=25076) | bc++=74657 bc--=66499 inv=1269450
[DSB @ 8200000 calls] bc=1 isBypassOn=true| real=1868200 virt=790269 notrack=5541530 | touchRes=63508(eff=41478,ineff=22030) resetRes=78464(ineff=53061,eff=25403) | bc++=75091 bc--=66881 inv=1280635
[DSB @ 8300000 calls] bc=1 isBypassOn=true| real=1886869 virt=800403 notrack=5612727 | touchRes=64218(eff=41888,ineff=22330) resetRes=79239(ineff=53542,eff=25697) | bc++=75872 bc--=67585 inv=1295147
[DSB @ 8400000 calls] bc=7 isBypassOn=true| real=1915895 virt=809168 notrack=5674936 | touchRes=65104(eff=42534,ineff=22570) resetRes=80386(ineff=54403,eff=25983) | bc++=76973 bc--=68517 inv=1312564
[DSB @ 8500000 calls] bc=0 isBypassOn=true| real=1940701 virt=818628 notrack=5740670 | touchRes=65892(eff=43078,ineff=22814) resetRes=81339(ineff=55069,eff=26270) | bc++=77883 bc--=69348 inv=1328432
[DSB @ 8600000 calls] bc=2 isBypassOn=true| real=1975293 virt=826926 notrack=5797780 | touchRes=66900(eff=43870,ineff=23030) resetRes=82654(ineff=56078,eff=26576) | bc++=79108 bc--=70446 inv=1346982
[DSB @ 8700000 calls] bc=0 isBypassOn=true| real=1997863 virt=836587 notrack=5865549 | touchRes=67640(eff=44355,ineff=23285) resetRes=83526(ineff=56656,eff=26870) | bc++=79941 bc--=71225 inv=1362989
[DSB @ 8800000 calls] bc=12 isBypassOn=true| real=2025674 virt=845505 notrack=5928820 | touchRes=68498(eff=44979,ineff=23519) resetRes=84671(ineff=57489,eff=27182) | bc++=81008 bc--=72161 inv=1380113
[DSB @ 8900000 calls] bc=12 isBypassOn=false| real=2043252 virt=855741 notrack=6001006 | touchRes=69153(eff=45358,ineff=23795) resetRes=85438(ineff=57956,eff=27482) | bc++=81751 bc--=72840 inv=1394290
[DSB @ 9000000 calls] bc=0 isBypassOn=true| real=2077993 virt=864015 notrack=6057991 | touchRes=70112(eff=46095,ineff=24017) resetRes=86737(ineff=58940,eff=27797) | bc++=82957 bc--=73892 inv=1412586
[DSB @ 9100000 calls] bc=4 isBypassOn=true| real=2102214 virt=873403 notrack=6124382 | touchRes=70864(eff=46614,ineff=24250) resetRes=87771(ineff=59686,eff=28085) | bc++=83936 bc--=74699 inv=1428834
[DSB @ 9200000 calls] bc=1 isBypassOn=true| real=2132515 virt=882269 notrack=6185215 | touchRes=71737(eff=47244,ineff=24493) resetRes=88900(ineff=60513,eff=28387) | bc++=85006 bc--=75631 inv=1445640
[DSB @ 9300000 calls] bc=5 isBypassOn=true| real=2169114 virt=890088 notrack=6240797 | touchRes=72725(eff=48041,ineff=24684) resetRes=90245(ineff=61572,eff=28673) | bc++=86256 bc--=76714 inv=1464057
[DSB @ 9400000 calls] bc=4 isBypassOn=true| real=2178884 virt=901313 notrack=6319802 | touchRes=73218(eff=48255,ineff=24963) resetRes=90870(ineff=61894,eff=28976) | bc++=86857 bc--=77231 inv=1477559
[DSB @ 9500000 calls] bc=0 isBypassOn=true| real=2228995 virt=907588 notrack=6363416 | touchRes=74254(eff=49133,ineff=25121) resetRes=91731(ineff=62524,eff=29207) | bc++=87645 bc--=78340 inv=1489968
[DSB @ 9600000 calls] bc=0 isBypassOn=true| real=2328995 virt=907588 notrack=6363416 | touchRes=74254(eff=49133,ineff=25121) resetRes=91731(ineff=62524,eff=29207) | bc++=87645 bc--=78340 inv=1489968
[DSB @ 9700000 calls] bc=0 isBypassOn=true| real=2428995 virt=907588 notrack=6363416 | touchRes=74254(eff=49133,ineff=25121) resetRes=91731(ineff=62524,eff=29207) | bc++=87645 bc--=78340 inv=1489968
[DSB @ 9800000 calls] bc=0 isBypassOn=true| real=2528995 virt=907588 notrack=6363416 | touchRes=74254(eff=49133,ineff=25121) resetRes=91731(ineff=62524,eff=29207) | bc++=87645 bc--=78340 inv=1489968
[DSB @ 9900000 calls] bc=0 isBypassOn=true| real=2628995 virt=907588 notrack=6363416 | touchRes=74254(eff=49133,ineff=25121) resetRes=91731(ineff=62524,eff=29207) | bc++=87645 bc--=78340 inv=1489968
[DSB @ 10000000 calls] bc=0 isBypassOn=true| real=2728995 virt=907588 notrack=6363416 | touchRes=74254(eff=49133,ineff=25121) resetRes=91731(ineff=62524,eff=29207) | bc++=87645 bc--=78340 inv=1489968
[DSB @ 10100000 calls] bc=0 isBypassOn=true| real=2828995 virt=907588 notrack=6363416 | touchRes=74254(eff=49133,ineff=25121) resetRes=91731(ineff=62524,eff=29207) | bc++=87645 bc--=78340 inv=1489968
[DSB @ 10200000 calls] bc=0 isBypassOn=true| real=2928995 virt=907588 notrack=6363416 | touchRes=74254(eff=49133,ineff=25121) resetRes=91731(ineff=62524,eff=29207) | bc++=87645 bc--=78340 inv=1489968
[DSB @ 10300000 calls] bc=0 isBypassOn=true| real=3028995 virt=907588 notrack=6363416 | touchRes=74254(eff=49133,ineff=25121) resetRes=91731(ineff=62524,eff=29207) | bc++=87645 bc--=78340 inv=1489968
[DSB @ 10400000 calls] bc=0 isBypassOn=true| real=3128995 virt=907588 notrack=6363416 | touchRes=74254(eff=49133,ineff=25121) resetRes=91731(ineff=62524,eff=29207) | bc++=87645 bc--=78340 inv=1489968
[DSB @ 10500000 calls] bc=0 isBypassOn=true| real=3228995 virt=907588 notrack=6363416 | touchRes=74254(eff=49133,ineff=25121) resetRes=91731(ineff=62524,eff=29207) | bc++=87645 bc--=78340 inv=1489968
[DSB @ 10600000 calls] bc=0 isBypassOn=true| real=3328995 virt=907588 notrack=6363416 | touchRes=74254(eff=49133,ineff=25121) resetRes=91731(ineff=62524,eff=29207) | bc++=87645 bc--=78340 inv=1489968
[DSB @ 10700000 calls] bc=0 isBypassOn=true| real=3428995 virt=907588 notrack=6363416 | touchRes=74254(eff=49133,ineff=25121) resetRes=91731(ineff=62524,eff=29207) | bc++=87645 bc--=78340 inv=1489968
[DSB @ 10800000 calls] bc=0 isBypassOn=true| real=3528995 virt=907588 notrack=6363416 | touchRes=74254(eff=49133,ineff=25121) resetRes=91731(ineff=62524,eff=29207) | bc++=87645 bc--=78340 inv=1489968
[DSB @ 10900000 calls] bc=0 isBypassOn=true| real=3628995 virt=907588 notrack=6363416 | touchRes=74254(eff=49133,ineff=25121) resetRes=91731(ineff=62524,eff=29207) | bc++=87645 bc--=78340 inv=1489968
[DSB @ 11000000 calls] bc=0 isBypassOn=true| real=3728995 virt=907588 notrack=6363416 | touchRes=74254(eff=49133,ineff=25121) resetRes=91731(ineff=62524,eff=29207) | bc++=87645 bc--=78340 inv=1489968
[DSB @ 11100000 calls] bc=0 isBypassOn=true| real=3828995 virt=907588 notrack=6363416 | touchRes=74254(eff=49133,ineff=25121) resetRes=91731(ineff=62524,eff=29207) | bc++=87645 bc--=78340 inv=1489968
[DSB @ 11200000 calls] bc=0 isBypassOn=true| real=3928995 virt=907588 notrack=6363416 | touchRes=74254(eff=49133,ineff=25121) resetRes=91731(ineff=62524,eff=29207) | bc++=87645 bc--=78340 inv=1489968
[DSB @ 11300000 calls] bc=0 isBypassOn=true| real=4028995 virt=907588 notrack=6363416 | touchRes=74254(eff=49133,ineff=25121) resetRes=91731(ineff=62524,eff=29207) | bc++=87645 bc--=78340 inv=1489968
[DSB @ 11400000 calls] bc=0 isBypassOn=true| real=4128995 virt=907588 notrack=6363416 | touchRes=74254(eff=49133,ineff=25121) resetRes=91731(ineff=62524,eff=29207) | bc++=87645 bc--=78340 inv=1489968
[DSB @ 11500000 calls] bc=0 isBypassOn=true| real=4228995 virt=907588 notrack=6363416 | touchRes=74254(eff=49133,ineff=25121) resetRes=91731(ineff=62524,eff=29207) | bc++=87645 bc--=78340 inv=1489968
[DSB @ 11600000 calls] bc=0 isBypassOn=true| real=4328995 virt=907588 notrack=6363416 | touchRes=74254(eff=49133,ineff=25121) resetRes=91731(ineff=62524,eff=29207) | bc++=87645 bc--=78340 inv=1489968
[DSB @ 11700000 calls] bc=0 isBypassOn=true| real=4428995 virt=907588 notrack=6363416 | touchRes=74254(eff=49133,ineff=25121) resetRes=91731(ineff=62524,eff=29207) | bc++=87645 bc--=78340 inv=1489968
[DSB @ 11800000 calls] bc=0 isBypassOn=true| real=4528995 virt=907588 notrack=6363416 | touchRes=74254(eff=49133,ineff=25121) resetRes=91731(ineff=62524,eff=29207) | bc++=87645 bc--=78340 inv=1489968
[DSB @ 11900000 calls] bc=0 isBypassOn=true| real=4628995 virt=907588 notrack=6363416 | touchRes=74254(eff=49133,ineff=25121) resetRes=91731(ineff=62524,eff=29207) | bc++=87645 bc--=78340 inv=1489968
[DSB @ 12000000 calls] bc=0 isBypassOn=true| real=4728995 virt=907588 notrack=6363416 | touchRes=74254(eff=49133,ineff=25121) resetRes=91731(ineff=62524,eff=29207) | bc++=87645 bc--=78340 inv=1489968
[DSB @ 12100000 calls] bc=0 isBypassOn=true| real=4828995 virt=907588 notrack=6363416 | touchRes=74254(eff=49133,ineff=25121) resetRes=91731(ineff=62524,eff=29207) | bc++=87645 bc--=78340 inv=1489968
[DSB @ 12200000 calls] bc=0 isBypassOn=true| real=4928995 virt=907588 notrack=6363416 | touchRes=74254(eff=49133,ineff=25121) resetRes=91731(ineff=62524,eff=29207) | bc++=87645 bc--=78340 inv=1489968
[DSB @ 12300000 calls] bc=0 isBypassOn=true| real=5028995 virt=907588 notrack=6363416 | touchRes=74254(eff=49133,ineff=25121) resetRes=91731(ineff=62524,eff=29207) | bc++=87645 bc--=78340 inv=1489968
[DSB @ 12400000 calls] bc=0 isBypassOn=true| real=5128995 virt=907588 notrack=6363416 | touchRes=74254(eff=49133,ineff=25121) resetRes=91731(ineff=62524,eff=29207) | bc++=87645 bc--=78340 inv=1489968
[DSB @ 12500000 calls] bc=0 isBypassOn=true| real=5228995 virt=907588 notrack=6363416 | touchRes=74254(eff=49133,ineff=25121) resetRes=91731(ineff=62524,eff=29207) | bc++=87645 bc--=78340 inv=1489968
[DSB @ 12600000 calls] bc=0 isBypassOn=true| real=5328995 virt=907588 notrack=6363416 | touchRes=74254(eff=49133,ineff=25121) resetRes=91731(ineff=62524,eff=29207) | bc++=87645 bc--=78340 inv=1489968
[DSB @ 12700000 calls] bc=0 isBypassOn=true| real=5428995 virt=907588 notrack=6363416 | touchRes=74254(eff=49133,ineff=25121) resetRes=91731(ineff=62524,eff=29207) | bc++=87645 bc--=78340 inv=1489968
[DSB @ 12800000 calls] bc=0 isBypassOn=true| real=5528995 virt=907588 notrack=6363416 | touchRes=74254(eff=49133,ineff=25121) resetRes=91731(ineff=62524,eff=29207) | bc++=87645 bc--=78340 inv=1489968
[DSB @ 12900000 calls] bc=0 isBypassOn=true| real=5628995 virt=907588 notrack=6363416 | touchRes=74254(eff=49133,ineff=25121) resetRes=91731(ineff=62524,eff=29207) | bc++=87645 bc--=78340 inv=1489968
[DSB @ 13000000 calls] bc=0 isBypassOn=true| real=5728995 virt=907588 notrack=6363416 | touchRes=74254(eff=49133,ineff=25121) resetRes=91731(ineff=62524,eff=29207) | bc++=87645 bc--=78340 inv=1489968
[DSB @ 13100000 calls] bc=0 isBypassOn=true| real=5828995 virt=907588 notrack=6363416 | touchRes=74254(eff=49133,ineff=25121) resetRes=91731(ineff=62524,eff=29207) | bc++=87645 bc--=78340 inv=1489968
[DSB @ 13200000 calls] bc=0 isBypassOn=true| real=5928995 virt=907588 notrack=6363416 | touchRes=74254(eff=49133,ineff=25121) resetRes=91731(ineff=62524,eff=29207) | bc++=87645 bc--=78340 inv=1489968
[DSB @ 13300000 calls] bc=0 isBypassOn=true| real=6028995 virt=907588 notrack=6363416 | touchRes=74254(eff=49133,ineff=25121) resetRes=91731(ineff=62524,eff=29207) | bc++=87645 bc--=78340 inv=1489968
Exiting @ tick 26618509086500 because a thread reached the max instruction count
