warn: The `get_runtime_isa` function is deprecated. Please migrate away from using this function.
warn: The se.py script is deprecated. It will be removed in future releases of  gem5.
warn: The `get_runtime_isa` function is deprecated. Please migrate away from using this function.
Global frequency set at 1000000000000 ticks per second
src/base/statistics.hh:279: warn: One of the stats is a legacy stat. Legacy stat is a stat that does not belong to any statistics::Group. Legacy stat is deprecated.
src/base/remote_gdb.cc:418: warn: Sockets disabled, not accepting gdb connections
src/sim/process.cc:396: warn: Checkpoints for pipes, device drivers and sockets do not work.
gem5 Simulator System.  https://www.gem5.org
gem5 is copyrighted software; use the --copyright option for details.

gem5 version 23.0.0.1
gem5 compiled Apr  6 2026 01:50:35
gem5 started Apr  6 2026 04:10:47
gem5 executing on b49ce2a326be, pid 120406
command line: /opt/gem5/build/X86/gem5.opt --outdir=/workspace/results_l3/1MB/policy0Config2/cam4 /workspace/configs/run_spec_l3.py --rp-type=DSBRP --l3-size=1MB --l3-assoc=16 --cpu-type=DerivO3CPU --cmd=./cam4_s_base.gem5-x86 --options= --mem-size=8GB --maxinst=250000000 --caches --l2cache --l1d_size=32kB --l1i_size=32kB --l1d_assoc=8 --l1i_assoc=8 --l2_size=256kB --l2_assoc=8 --checkpoint-restore=1 --checkpoint-dir=/workspace/checkpoints/cam4/m5out --restore-with-cpu=AtomicSimpleCPU --standard-switch=1 --warmup-insts=50000000 --dsb-enable-bypass=true --dsb-enable-aging=false --dsb-bypass-counter=6 --dsb-virtual-bypass-counter=3 --dsb-random-promotion=0 --dsb-minimum-bypass-counter=12

info: Standard input is not a terminal, disabling listeners.
Replacement policy: DSBRP
L1I size: 32kB, assoc: 8
L1D size: 32kB, assoc: 8
L2 size: 256kB, assoc: 8
L3 size: 1MB, L3 assoc: 16
Switch at instruction count:1
src/sim/simulate.cc:194: info: Entering event queue @ 25337984014000.  Starting simulation...
src/sim/power_state.cc:105: warn: PowerState: Already in the requested power state, request ignored
Switched CPUS @ tick 25337984015500
switching cpus
Switch at instruction count:50000000
src/sim/simulate.cc:194: info: Entering event queue @ 25337984015500.  Starting simulation...
[DSB @ 100000 calls] bc=0 isBypassOn=true| real=19271 virt=10054 notrack=70674 | touchRes=3140(eff=1354,ineff=1786) resetRes=466(ineff=118,eff=348) | bc++=1904 bc--=1702 inv=7361
[DSB @ 200000 calls] bc=0 isBypassOn=true| real=118539 virt=10140 notrack=71320 | touchRes=3953(eff=2162,ineff=1791) resetRes=526(ineff=177,eff=349) | bc++=1968 bc--=2511 inv=7803
[DSB @ 300000 calls] bc=0 isBypassOn=true| real=218539 virt=10140 notrack=71320 | touchRes=3953(eff=2162,ineff=1791) resetRes=526(ineff=177,eff=349) | bc++=1968 bc--=2511 inv=7803
[DSB @ 400000 calls] bc=0 isBypassOn=true| real=318539 virt=10140 notrack=71320 | touchRes=3953(eff=2162,ineff=1791) resetRes=526(ineff=177,eff=349) | bc++=1968 bc--=2511 inv=7803
[DSB @ 500000 calls] bc=0 isBypassOn=true| real=418539 virt=10140 notrack=71320 | touchRes=3953(eff=2162,ineff=1791) resetRes=526(ineff=177,eff=349) | bc++=1968 bc--=2511 inv=7803
[DSB @ 600000 calls] bc=0 isBypassOn=true| real=518539 virt=10140 notrack=71320 | touchRes=3953(eff=2162,ineff=1791) resetRes=526(ineff=177,eff=349) | bc++=1968 bc--=2511 inv=7803
[DSB @ 700000 calls] bc=0 isBypassOn=true| real=618539 virt=10140 notrack=71320 | touchRes=3953(eff=2162,ineff=1791) resetRes=526(ineff=177,eff=349) | bc++=1968 bc--=2511 inv=7803
[DSB @ 800000 calls] bc=0 isBypassOn=true| real=718539 virt=10140 notrack=71320 | touchRes=3953(eff=2162,ineff=1791) resetRes=526(ineff=177,eff=349) | bc++=1968 bc--=2511 inv=7803
[DSB @ 900000 calls] bc=0 isBypassOn=true| real=818539 virt=10140 notrack=71320 | touchRes=3953(eff=2162,ineff=1791) resetRes=526(ineff=177,eff=349) | bc++=1968 bc--=2511 inv=7803
[DSB @ 1000000 calls] bc=0 isBypassOn=true| real=883133 virt=14632 notrack=102234 | touchRes=4227(eff=2360,ineff=1867) resetRes=779(ineff=384,eff=395) | bc++=2251 bc--=2755 inv=13091
src/sim/simulate.cc:194: info: Entering event queue @ 25490079169500.  Starting simulation...
Switching CPUS @ tick 25490079169500
Simulation ends instruction count:250000000
switching cpus
**** REAL SIMULATION ****
src/sim/simulate.cc:194: info: Entering event queue @ 25490079487000.  Starting simulation...
[DSB @ 1100000 calls] bc=11 isBypassOn=true| real=914241 virt=23315 notrack=162443 | touchRes=8807(eff=6229,ineff=2578) resetRes=3596(ineff=2607,eff=989) | bc++=5185 bc--=7218 inv=25388
[DSB @ 1200000 calls] bc=10 isBypassOn=true| real=936435 virt=33116 notrack=230448 | touchRes=10795(eff=7942,ineff=2853) resetRes=4177(ineff=2986,eff=1191) | bc++=5839 bc--=9133 inv=35589
[DSB @ 1300000 calls] bc=10 isBypassOn=true| real=936535 virt=45740 notrack=317724 | touchRes=10795(eff=7942,ineff=2853) resetRes=4177(ineff=2986,eff=1191) | bc++=5839 bc--=9133 inv=46693
[DSB @ 1400000 calls] bc=10 isBypassOn=true| real=936637 virt=58296 notrack=405066 | touchRes=10795(eff=7942,ineff=2853) resetRes=4177(ineff=2986,eff=1191) | bc++=5839 bc--=9133 inv=57721
[DSB @ 1500000 calls] bc=10 isBypassOn=true| real=936722 virt=70782 notrack=492495 | touchRes=10795(eff=7942,ineff=2853) resetRes=4177(ineff=2986,eff=1191) | bc++=5839 bc--=9133 inv=68663
[DSB @ 1600000 calls] bc=10 isBypassOn=true| real=936818 virt=83165 notrack=580016 | touchRes=10795(eff=7942,ineff=2853) resetRes=4177(ineff=2986,eff=1191) | bc++=5839 bc--=9133 inv=79541
[DSB @ 1700000 calls] bc=10 isBypassOn=true| real=936924 virt=95588 notrack=667487 | touchRes=10795(eff=7942,ineff=2853) resetRes=4177(ineff=2986,eff=1191) | bc++=5839 bc--=9133 inv=90522
[DSB @ 1800000 calls] bc=10 isBypassOn=true| real=937020 virt=107979 notrack=755000 | touchRes=10795(eff=7942,ineff=2853) resetRes=4177(ineff=2986,eff=1191) | bc++=5839 bc--=9133 inv=101470
[DSB @ 1900000 calls] bc=10 isBypassOn=true| real=937129 virt=120441 notrack=842429 | touchRes=10795(eff=7942,ineff=2853) resetRes=4177(ineff=2986,eff=1191) | bc++=5839 bc--=9133 inv=112428
[DSB @ 2000000 calls] bc=10 isBypassOn=true| real=937219 virt=132848 notrack=929932 | touchRes=10795(eff=7942,ineff=2853) resetRes=4177(ineff=2986,eff=1191) | bc++=5839 bc--=9133 inv=123330
[DSB @ 2100000 calls] bc=1 isBypassOn=true| real=969368 virt=141255 notrack=989376 | touchRes=12893(eff=9931,ineff=2962) resetRes=4774(ineff=3454,eff=1320) | bc++=6416 bc--=11251 inv=135483
[DSB @ 2200000 calls] bc=12 isBypassOn=false| real=1009178 virt=148731 notrack=1042090 | touchRes=17967(eff=14451,ineff=3516) resetRes=7573(ineff=5861,eff=1712) | bc++=9377 bc--=16163 inv=148600
[DSB @ 2300000 calls] bc=0 isBypassOn=true| real=1090745 virt=151040 notrack=1058214 | touchRes=19775(eff=16152,ineff=3623) resetRes=7839(ineff=6063,eff=1776) | bc++=9686 bc--=17928 inv=152019
[DSB @ 2400000 calls] bc=0 isBypassOn=true| real=1190745 virt=151040 notrack=1058214 | touchRes=19776(eff=16153,ineff=3623) resetRes=7839(ineff=6063,eff=1776) | bc++=9686 bc--=17929 inv=152019
[DSB @ 2500000 calls] bc=0 isBypassOn=true| real=1290745 virt=151040 notrack=1058214 | touchRes=19777(eff=16154,ineff=3623) resetRes=7839(ineff=6063,eff=1776) | bc++=9686 bc--=17930 inv=152019
[DSB @ 2600000 calls] bc=0 isBypassOn=true| real=1390745 virt=151040 notrack=1058214 | touchRes=19777(eff=16154,ineff=3623) resetRes=7839(ineff=6063,eff=1776) | bc++=9686 bc--=17930 inv=152019
[DSB @ 2700000 calls] bc=0 isBypassOn=true| real=1490745 virt=151040 notrack=1058214 | touchRes=19778(eff=16155,ineff=3623) resetRes=7839(ineff=6063,eff=1776) | bc++=9686 bc--=17931 inv=152019
[DSB @ 2800000 calls] bc=0 isBypassOn=true| real=1590745 virt=151040 notrack=1058214 | touchRes=19786(eff=16163,ineff=3623) resetRes=7839(ineff=6063,eff=1776) | bc++=9686 bc--=17939 inv=152019
[DSB @ 2900000 calls] bc=0 isBypassOn=true| real=1690745 virt=151040 notrack=1058214 | touchRes=19787(eff=16164,ineff=3623) resetRes=7839(ineff=6063,eff=1776) | bc++=9686 bc--=17940 inv=152019
[DSB @ 3000000 calls] bc=0 isBypassOn=true| real=1790745 virt=151040 notrack=1058214 | touchRes=19787(eff=16164,ineff=3623) resetRes=7839(ineff=6063,eff=1776) | bc++=9686 bc--=17940 inv=152019
[DSB @ 3100000 calls] bc=8 isBypassOn=true| real=1867718 virt=153989 notrack=1078292 | touchRes=20165(eff=16522,ineff=3643) resetRes=8001(ineff=6217,eff=1784) | bc++=9860 bc--=18306 inv=155197
Exiting @ tick 25669450871500 because a thread reached the max instruction count
