warn: The `get_runtime_isa` function is deprecated. Please migrate away from using this function.
warn: The se.py script is deprecated. It will be removed in future releases of  gem5.
warn: The `get_runtime_isa` function is deprecated. Please migrate away from using this function.
Global frequency set at 1000000000000 ticks per second
src/base/statistics.hh:279: warn: One of the stats is a legacy stat. Legacy stat is a stat that does not belong to any statistics::Group. Legacy stat is deprecated.
src/base/remote_gdb.cc:418: warn: Sockets disabled, not accepting gdb connections
src/sim/process.cc:396: warn: Checkpoints for pipes, device drivers and sockets do not work.
gem5 Simulator System.  https://www.gem5.org
gem5 is copyrighted software; use the --copyright option for details.

gem5 version 23.0.0.1
gem5 compiled Apr  6 2026 01:50:35
gem5 started Apr  6 2026 15:09:46
gem5 executing on b49ce2a326be, pid 235502
command line: /opt/gem5/build/X86/gem5.opt --outdir=/workspace/results_l3/2MB/policy1Config2/wrf /workspace/configs/run_spec_l3.py --rp-type=DSBRP --l3-size=2MB --l3-assoc=16 --cpu-type=DerivO3CPU --cmd=./wrf_s_base.gem5-x86 --options= --mem-size=8GB --maxinst=250000000 --caches --l2cache --l1d_size=32kB --l1i_size=32kB --l1d_assoc=8 --l1i_assoc=8 --l2_size=256kB --l2_assoc=8 --checkpoint-restore=1 --checkpoint-dir=/workspace/checkpoints/wrf/m5out --restore-with-cpu=AtomicSimpleCPU --standard-switch=1 --warmup-insts=50000000 --dsb-enable-bypass=true --dsb-enable-aging=true --dsb-bypass-counter=6 --dsb-virtual-bypass-counter=3 --dsb-random-promotion=0 --dsb-minimum-bypass-counter=12

info: Standard input is not a terminal, disabling listeners.
Replacement policy: DSBRP
L1I size: 32kB, assoc: 8
L1D size: 32kB, assoc: 8
L2 size: 256kB, assoc: 8
L3 size: 2MB, L3 assoc: 16
Switch at instruction count:1
src/sim/simulate.cc:194: info: Entering event queue @ 27778733914000.  Starting simulation...
src/sim/simulate.cc:194: info: Entering event queue @ 27778733915500.  Starting simulation...
src/sim/power_state.cc:105: warn: PowerState: Already in the requested power state, request ignored
Switched CPUS @ tick 27778733915500
switching cpus
Switch at instruction count:50000000
src/sim/simulate.cc:194: info: Entering event queue @ 27778733916000.  Starting simulation...
[DSB @ 100000 calls] bc=12 isBypassOn=false| real=24829 virt=9440 notrack=65730 | touchRes=19305(eff=12666,ineff=6639) resetRes=515(ineff=68,eff=447) | bc++=6707 bc--=13113 inv=1748
[DSB @ 200000 calls] bc=12 isBypassOn=false| real=24829 virt=21894 notrack=153276 | touchRes=29100(eff=12666,ineff=16434) resetRes=579(ineff=68,eff=511) | bc++=16502 bc--=13177 inv=1750
[DSB @ 300000 calls] bc=12 isBypassOn=false| real=24838 virt=34375 notrack=240786 | touchRes=39097(eff=12666,ineff=26431) resetRes=725(ineff=68,eff=657) | bc++=26499 bc--=13323 inv=1770
[DSB @ 400000 calls] bc=12 isBypassOn=false| real=24872 virt=46797 notrack=328330 | touchRes=49396(eff=12668,ineff=36728) resetRes=1063(ineff=76,eff=987) | bc++=36804 bc--=13655 inv=1835
[DSB @ 500000 calls] bc=12 isBypassOn=false| real=24874 virt=59360 notrack=415765 | touchRes=59716(eff=12668,ineff=47048) resetRes=1306(ineff=76,eff=1230) | bc++=47124 bc--=13898 inv=1922
src/sim/simulate.cc:194: info: Entering event queue @ 27935403934500.  Starting simulation...
Switching CPUS @ tick 27935403934500
Simulation ends instruction count:250000000
switching cpus
**** REAL SIMULATION ****
src/sim/simulate.cc:194: info: Entering event queue @ 27935404135750.  Starting simulation...
[DSB @ 600000 calls] bc=12 isBypassOn=false| real=24921 virt=71882 notrack=503196 | touchRes=70307(eff=12668,ineff=57639) resetRes=1714(ineff=81,eff=1633) | bc++=57720 bc--=14301 inv=2140
[DSB @ 700000 calls] bc=12 isBypassOn=false| real=24931 virt=84336 notrack=590732 | touchRes=80570(eff=12670,ineff=67900) resetRes=1991(ineff=81,eff=1910) | bc++=67981 bc--=14580 inv=2308
[DSB @ 800000 calls] bc=12 isBypassOn=false| real=24956 virt=96944 notrack=678099 | touchRes=90902(eff=12670,ineff=78232) resetRes=2458(ineff=82,eff=2376) | bc++=78314 bc--=15046 inv=2541
[DSB @ 900000 calls] bc=12 isBypassOn=false| real=24961 virt=109331 notrack=765707 | touchRes=100934(eff=12672,ineff=88262) resetRes=2707(ineff=82,eff=2625) | bc++=88344 bc--=15297 inv=2687
[DSB @ 1000000 calls] bc=12 isBypassOn=false| real=24968 virt=121664 notrack=853367 | touchRes=111136(eff=12673,ineff=98463) resetRes=3142(ineff=82,eff=3060) | bc++=98545 bc--=15733 inv=2953
[DSB @ 1100000 calls] bc=12 isBypassOn=false| real=24968 virt=134249 notrack=940782 | touchRes=120464(eff=12673,ineff=107791) resetRes=3508(ineff=82,eff=3426) | bc++=107873 bc--=16099 inv=3207
[DSB @ 1200000 calls] bc=12 isBypassOn=false| real=24980 virt=146841 notrack=1028178 | touchRes=130383(eff=12673,ineff=117710) resetRes=3627(ineff=82,eff=3545) | bc++=117792 bc--=16218 inv=3229
[DSB @ 1300000 calls] bc=12 isBypassOn=false| real=24980 virt=159448 notrack=1115571 | touchRes=140056(eff=12673,ineff=127383) resetRes=3627(ineff=82,eff=3545) | bc++=127465 bc--=16218 inv=3234
[DSB @ 1400000 calls] bc=12 isBypassOn=false| real=24980 virt=171898 notrack=1203121 | touchRes=150117(eff=12673,ineff=137444) resetRes=3629(ineff=82,eff=3547) | bc++=137526 bc--=16220 inv=3234
[DSB @ 1500000 calls] bc=12 isBypassOn=false| real=24981 virt=184325 notrack=1290693 | touchRes=159713(eff=12673,ineff=147040) resetRes=3701(ineff=82,eff=3619) | bc++=147122 bc--=16292 inv=3258
[DSB @ 1600000 calls] bc=12 isBypassOn=false| real=24981 virt=196878 notrack=1378140 | touchRes=170582(eff=12673,ineff=157909) resetRes=3723(ineff=82,eff=3641) | bc++=157991 bc--=16314 inv=3283
[DSB @ 1700000 calls] bc=12 isBypassOn=false| real=24982 virt=209475 notrack=1465542 | touchRes=181746(eff=12673,ineff=169073) resetRes=3774(ineff=82,eff=3692) | bc++=169155 bc--=16365 inv=3336
[DSB @ 1800000 calls] bc=12 isBypassOn=false| real=25077 virt=222044 notrack=1552878 | touchRes=191272(eff=12703,ineff=178569) resetRes=4585(ineff=103,eff=4482) | bc++=178672 bc--=17185 inv=3923
[DSB @ 1900000 calls] bc=12 isBypassOn=false| real=25078 virt=234493 notrack=1640428 | touchRes=201439(eff=12703,ineff=188736) resetRes=4606(ineff=103,eff=4503) | bc++=188839 bc--=17206 inv=3935
Exiting @ tick 28095200099000 because a thread reached the max instruction count
