warn: The `get_runtime_isa` function is deprecated. Please migrate away from using this function.
warn: The se.py script is deprecated. It will be removed in future releases of  gem5.
warn: The `get_runtime_isa` function is deprecated. Please migrate away from using this function.
Global frequency set at 1000000000000 ticks per second
src/base/statistics.hh:279: warn: One of the stats is a legacy stat. Legacy stat is a stat that does not belong to any statistics::Group. Legacy stat is deprecated.
src/base/remote_gdb.cc:418: warn: Sockets disabled, not accepting gdb connections
src/sim/process.cc:396: warn: Checkpoints for pipes, device drivers and sockets do not work.
gem5 Simulator System.  https://www.gem5.org
gem5 is copyrighted software; use the --copyright option for details.

gem5 version 23.0.0.1
gem5 compiled Apr  6 2026 01:50:35
gem5 started Apr  6 2026 07:03:39
gem5 executing on b49ce2a326be, pid 149212
command line: /opt/gem5/build/X86/gem5.opt --outdir=/workspace/results_l3/1MB/policy1Config2/mcf /workspace/configs/run_spec_l3.py --rp-type=DSBRP --l3-size=1MB --l3-assoc=16 --cpu-type=DerivO3CPU --cmd=./mcf_s_base.gem5-x86 --options=inp.in --mem-size=8GB --maxinst=250000000 --caches --l2cache --l1d_size=32kB --l1i_size=32kB --l1d_assoc=8 --l1i_assoc=8 --l2_size=256kB --l2_assoc=8 --checkpoint-restore=1 --checkpoint-dir=/workspace/checkpoints/mcf/m5out --restore-with-cpu=AtomicSimpleCPU --standard-switch=1 --warmup-insts=50000000 --dsb-enable-bypass=true --dsb-enable-aging=true --dsb-bypass-counter=6 --dsb-virtual-bypass-counter=3 --dsb-random-promotion=0 --dsb-minimum-bypass-counter=12

info: Standard input is not a terminal, disabling listeners.
Replacement policy: DSBRP
L1I size: 32kB, assoc: 8
L1D size: 32kB, assoc: 8
L2 size: 256kB, assoc: 8
L3 size: 1MB, L3 assoc: 16
Switch at instruction count:1
src/sim/simulate.cc:194: info: Entering event queue @ 24065090964500.  Starting simulation...
src/sim/simulate.cc:194: info: Entering event queue @ 24065090965500.  Starting simulation...
src/sim/power_state.cc:105: warn: PowerState: Already in the requested power state, request ignored
Switched CPUS @ tick 24065090965500
switching cpus
Switch at instruction count:50000000
src/sim/simulate.cc:194: info: Entering event queue @ 24065090966000.  Starting simulation...
[DSB @ 100000 calls] bc=10 isBypassOn=true| real=40 virt=12483 notrack=87476 | touchRes=8600(eff=21,ineff=8579) resetRes=572(ineff=2,eff=570) | bc++=8581 bc--=591 inv=192
[DSB @ 200000 calls] bc=12 isBypassOn=false| real=41 virt=24933 notrack=175025 | touchRes=17454(eff=22,ineff=17432) resetRes=1262(ineff=2,eff=1260) | bc++=17434 bc--=1282 inv=541
[DSB @ 300000 calls] bc=12 isBypassOn=false| real=43 virt=37330 notrack=262626 | touchRes=26262(eff=23,ineff=26239) resetRes=1958(ineff=2,eff=1956) | bc++=26241 bc--=1979 inv=914
src/sim/simulate.cc:194: info: Entering event queue @ 24222161019500.  Starting simulation...
Switching CPUS @ tick 24222161019500
Simulation ends instruction count:250000000
switching cpus
**** REAL SIMULATION ****
src/sim/simulate.cc:194: info: Entering event queue @ 24222161185750.  Starting simulation...
[DSB @ 400000 calls] bc=12 isBypassOn=false| real=50 virt=49865 notrack=350084 | touchRes=35004(eff=23,ineff=34981) resetRes=2669(ineff=2,eff=2667) | bc++=34983 bc--=2690 inv=1268
[DSB @ 500000 calls] bc=12 isBypassOn=false| real=54 virt=62383 notrack=437562 | touchRes=43788(eff=23,ineff=43765) resetRes=3356(ineff=2,eff=3354) | bc++=43767 bc--=3377 inv=1612
[DSB @ 600000 calls] bc=12 isBypassOn=false| real=57 virt=74753 notrack=525189 | touchRes=52412(eff=23,ineff=52389) resetRes=4109(ineff=2,eff=4107) | bc++=52391 bc--=4130 inv=1919
[DSB @ 700000 calls] bc=12 isBypassOn=false| real=58 virt=87270 notrack=612671 | touchRes=61003(eff=23,ineff=60980) resetRes=4828(ineff=2,eff=4826) | bc++=60982 bc--=4849 inv=2249
[DSB @ 800000 calls] bc=12 isBypassOn=false| real=62 virt=99743 notrack=700194 | touchRes=69959(eff=23,ineff=69936) resetRes=5513(ineff=2,eff=5511) | bc++=69938 bc--=5534 inv=2661
[DSB @ 900000 calls] bc=12 isBypassOn=true| real=64 virt=112139 notrack=787796 | touchRes=78551(eff=23,ineff=78528) resetRes=6219(ineff=2,eff=6217) | bc++=78530 bc--=6240 inv=3025
[DSB @ 1000000 calls] bc=12 isBypassOn=false| real=68 virt=124579 notrack=875352 | touchRes=87185(eff=23,ineff=87162) resetRes=6955(ineff=2,eff=6953) | bc++=87164 bc--=6976 inv=3386
[DSB @ 1100000 calls] bc=12 isBypassOn=false| real=70 virt=137013 notrack=962916 | touchRes=96109(eff=23,ineff=96086) resetRes=7696(ineff=2,eff=7694) | bc++=96088 bc--=7717 inv=3697
[DSB @ 1200000 calls] bc=12 isBypassOn=false| real=72 virt=149372 notrack=1050555 | touchRes=104696(eff=23,ineff=104673) resetRes=8394(ineff=2,eff=8392) | bc++=104675 bc--=8415 inv=4027
[DSB @ 1300000 calls] bc=12 isBypassOn=false| real=73 virt=161869 notrack=1138057 | touchRes=113286(eff=23,ineff=113263) resetRes=9126(ineff=2,eff=9124) | bc++=113265 bc--=9147 inv=4400
[DSB @ 1400000 calls] bc=12 isBypassOn=false| real=78 virt=174324 notrack=1225597 | touchRes=122040(eff=24,ineff=122016) resetRes=9858(ineff=2,eff=9856) | bc++=122018 bc--=9880 inv=4765
[DSB @ 1500000 calls] bc=12 isBypassOn=false| real=81 virt=186968 notrack=1312950 | touchRes=130841(eff=24,ineff=130817) resetRes=10601(ineff=2,eff=10599) | bc++=130819 bc--=10623 inv=5154
[DSB @ 1600000 calls] bc=12 isBypassOn=false| real=89 virt=199625 notrack=1400285 | touchRes=139539(eff=25,ineff=139514) resetRes=11326(ineff=2,eff=11324) | bc++=139516 bc--=11349 inv=5501
[DSB @ 1700000 calls] bc=12 isBypassOn=false| real=92 virt=212203 notrack=1487704 | touchRes=148331(eff=25,ineff=148306) resetRes=12048(ineff=2,eff=12046) | bc++=148308 bc--=12071 inv=5844
[DSB @ 1800000 calls] bc=12 isBypassOn=false| real=97 virt=224861 notrack=1575041 | touchRes=157059(eff=25,ineff=157034) resetRes=12779(ineff=2,eff=12777) | bc++=157036 bc--=12802 inv=6149
[DSB @ 1900000 calls] bc=12 isBypassOn=false| real=101 virt=237288 notrack=1662610 | touchRes=165783(eff=25,ineff=165758) resetRes=13554(ineff=2,eff=13552) | bc++=165760 bc--=13577 inv=6479
[DSB @ 2000000 calls] bc=12 isBypassOn=false| real=101 virt=249942 notrack=1749956 | touchRes=174678(eff=25,ineff=174653) resetRes=14277(ineff=2,eff=14275) | bc++=174655 bc--=14300 inv=6857
[DSB @ 2100000 calls] bc=12 isBypassOn=false| real=102 virt=262219 notrack=1837678 | touchRes=183351(eff=26,ineff=183325) resetRes=14947(ineff=2,eff=14945) | bc++=183327 bc--=14971 inv=7245
[DSB @ 2200000 calls] bc=12 isBypassOn=false| real=104 virt=274744 notrack=1925151 | touchRes=192333(eff=26,ineff=192307) resetRes=15669(ineff=3,eff=15666) | bc++=192310 bc--=15692 inv=7579
[DSB @ 2300000 calls] bc=12 isBypassOn=false| real=105 virt=287111 notrack=2012783 | touchRes=200852(eff=26,ineff=200826) resetRes=16386(ineff=3,eff=16383) | bc++=200829 bc--=16409 inv=7894
Exiting @ tick 24426323212500 because a thread reached the max instruction count
