warn: The `get_runtime_isa` function is deprecated. Please migrate away from using this function.
warn: The se.py script is deprecated. It will be removed in future releases of  gem5.
warn: The `get_runtime_isa` function is deprecated. Please migrate away from using this function.
Global frequency set at 1000000000000 ticks per second
src/base/statistics.hh:279: warn: One of the stats is a legacy stat. Legacy stat is a stat that does not belong to any statistics::Group. Legacy stat is deprecated.
src/base/remote_gdb.cc:418: warn: Sockets disabled, not accepting gdb connections
src/sim/process.cc:396: warn: Checkpoints for pipes, device drivers and sockets do not work.
gem5 Simulator System.  https://www.gem5.org
gem5 is copyrighted software; use the --copyright option for details.

gem5 version 23.0.0.1
gem5 compiled Apr  6 2026 01:50:35
gem5 started Apr  7 2026 09:25:15
gem5 executing on b49ce2a326be, pid 75536
command line: /opt/gem5/build/X86/gem5.opt --outdir=/workspace/results_l3/4MB/policy0Config1/cam4 /workspace/configs/run_spec_l3.py --rp-type=DSBRP --l3-size=4MB --l3-assoc=16 --cpu-type=DerivO3CPU --cmd=./cam4_s_base.gem5-x86 --options= --mem-size=8GB --maxinst=250000000 --caches --l2cache --l1d_size=32kB --l1i_size=32kB --l1d_assoc=8 --l1i_assoc=8 --l2_size=256kB --l2_assoc=8 --checkpoint-restore=1 --checkpoint-dir=/workspace/checkpoints/cam4/m5out --restore-with-cpu=AtomicSimpleCPU --standard-switch=1 --warmup-insts=50000000 --dsb-enable-bypass=true --dsb-enable-aging=false --dsb-bypass-counter=6 --dsb-virtual-bypass-counter=4 --dsb-random-promotion=0 --dsb-minimum-bypass-counter=8

info: Standard input is not a terminal, disabling listeners.
Replacement policy: DSBRP
L1I size: 32kB, assoc: 8
L1D size: 32kB, assoc: 8
L2 size: 256kB, assoc: 8
L3 size: 4MB, L3 assoc: 16
Switch at instruction count:1
src/sim/simulate.cc:194: info: Entering event queue @ 25337984014000.  Starting simulation...
src/sim/power_state.cc:105: warn: PowerState: Already in the requested power state, request ignored
Switched CPUS @ tick 25337984015500
switching cpus
Switch at instruction count:50000000
src/sim/simulate.cc:194: info: Entering event queue @ 25337984015500.  Starting simulation...
[DSB @ 100000 calls] bc=0 isBypassOn=true| real=24586 virt=4624 notrack=70789 | touchRes=6882(eff=3108,ineff=3774) resetRes=680(ineff=512,eff=168) | bc++=4286 bc--=3276 inv=823
[DSB @ 200000 calls] bc=0 isBypassOn=true| real=124586 virt=4624 notrack=70789 | touchRes=6882(eff=3108,ineff=3774) resetRes=680(ineff=512,eff=168) | bc++=4286 bc--=3276 inv=823
[DSB @ 300000 calls] bc=0 isBypassOn=true| real=224586 virt=4624 notrack=70789 | touchRes=6882(eff=3108,ineff=3774) resetRes=680(ineff=512,eff=168) | bc++=4286 bc--=3276 inv=823
[DSB @ 400000 calls] bc=0 isBypassOn=true| real=324586 virt=4624 notrack=70789 | touchRes=6882(eff=3108,ineff=3774) resetRes=680(ineff=512,eff=168) | bc++=4286 bc--=3276 inv=823
[DSB @ 500000 calls] bc=0 isBypassOn=true| real=424586 virt=4624 notrack=70789 | touchRes=6882(eff=3108,ineff=3774) resetRes=680(ineff=512,eff=168) | bc++=4286 bc--=3276 inv=823
[DSB @ 600000 calls] bc=0 isBypassOn=true| real=524586 virt=4624 notrack=70789 | touchRes=6882(eff=3108,ineff=3774) resetRes=680(ineff=512,eff=168) | bc++=4286 bc--=3276 inv=823
[DSB @ 700000 calls] bc=0 isBypassOn=true| real=624586 virt=4624 notrack=70789 | touchRes=6897(eff=3123,ineff=3774) resetRes=680(ineff=512,eff=168) | bc++=4286 bc--=3291 inv=823
[DSB @ 800000 calls] bc=0 isBypassOn=true| real=716308 virt=5123 notrack=78568 | touchRes=10160(eff=6386,ineff=3774) resetRes=736(ineff=568,eff=168) | bc++=4342 bc--=6554 inv=4255
[DSB @ 900000 calls] bc=0 isBypassOn=true| real=816308 virt=5123 notrack=78568 | touchRes=10165(eff=6391,ineff=3774) resetRes=736(ineff=568,eff=168) | bc++=4342 bc--=6559 inv=4255
src/sim/simulate.cc:194: info: Entering event queue @ 25488254124500.  Starting simulation...
Switching CPUS @ tick 25488254124500
Simulation ends instruction count:250000000
switching cpus
**** REAL SIMULATION ****
src/sim/simulate.cc:194: info: Entering event queue @ 25488254452000.  Starting simulation...
[DSB @ 1000000 calls] bc=8 isBypassOn=false| real=836798 virt=10054 notrack=153147 | touchRes=15277(eff=9508,ineff=5769) resetRes=7987(ineff=7234,eff=753) | bc++=13003 bc--=10261 inv=11421
[DSB @ 1100000 calls] bc=0 isBypassOn=true| real=898605 virt=12419 notrack=188975 | touchRes=21699(eff=15117,ineff=6582) resetRes=10029(ineff=9080,eff=949) | bc++=15662 bc--=16066 inv=15447
[DSB @ 1200000 calls] bc=0 isBypassOn=true| real=998605 virt=12419 notrack=188975 | touchRes=21702(eff=15120,ineff=6582) resetRes=10029(ineff=9080,eff=949) | bc++=15662 bc--=16069 inv=15447
[DSB @ 1300000 calls] bc=0 isBypassOn=true| real=1083897 virt=13355 notrack=202747 | touchRes=22908(eff=16326,ineff=6582) resetRes=10041(ineff=9090,eff=951) | bc++=15672 bc--=17277 inv=23065
[DSB @ 1400000 calls] bc=0 isBypassOn=true| real=1183461 virt=13377 notrack=203161 | touchRes=23161(eff=16579,ineff=6582) resetRes=10048(ineff=9097,eff=951) | bc++=15679 bc--=17530 inv=23348
[DSB @ 1500000 calls] bc=0 isBypassOn=true| real=1283461 virt=13377 notrack=203161 | touchRes=23161(eff=16579,ineff=6582) resetRes=10048(ineff=9097,eff=951) | bc++=15679 bc--=17530 inv=23348
[DSB @ 1600000 calls] bc=0 isBypassOn=true| real=1383461 virt=13377 notrack=203161 | touchRes=23161(eff=16579,ineff=6582) resetRes=10048(ineff=9097,eff=951) | bc++=15679 bc--=17530 inv=23348
[DSB @ 1700000 calls] bc=0 isBypassOn=true| real=1469880 virt=14161 notrack=215958 | touchRes=28619(eff=22032,ineff=6587) resetRes=10432(ineff=9267,eff=1165) | bc++=15854 bc--=23197 inv=30991
[DSB @ 1800000 calls] bc=0 isBypassOn=true| real=1550067 virt=15451 notrack=234481 | touchRes=30435(eff=23848,ineff=6587) resetRes=10458(ineff=9279,eff=1179) | bc++=15866 bc--=25027 inv=41712
[DSB @ 1900000 calls] bc=8 isBypassOn=false| real=1612672 virt=17719 notrack=269608 | touchRes=33760(eff=26444,ineff=7316) resetRes=15609(ineff=14086,eff=1523) | bc++=21402 bc--=27967 inv=46813
[DSB @ 2000000 calls] bc=0 isBypassOn=true| real=1650979 virt=21631 notrack=327389 | touchRes=40209(eff=31214,ineff=8995) resetRes=18498(ineff=16704,eff=1794) | bc++=25699 bc--=33008 inv=52781
[DSB @ 2100000 calls] bc=0 isBypassOn=true| real=1750979 virt=21631 notrack=327389 | touchRes=40211(eff=31216,ineff=8995) resetRes=18498(ineff=16704,eff=1794) | bc++=25699 bc--=33010 inv=52781
[DSB @ 2200000 calls] bc=0 isBypassOn=true| real=1840382 virt=22354 notrack=337263 | touchRes=41400(eff=32404,ineff=8996) resetRes=18515(ineff=16715,eff=1800) | bc++=25711 bc--=34204 inv=58978
[DSB @ 2300000 calls] bc=0 isBypassOn=true| real=1933347 virt=22804 notrack=343848 | touchRes=41798(eff=32802,ineff=8996) resetRes=18560(ineff=16751,eff=1809) | bc++=25747 bc--=34611 inv=62762
[DSB @ 2400000 calls] bc=0 isBypassOn=true| real=2031189 virt=22928 notrack=345882 | touchRes=42795(eff=33799,ineff=8996) resetRes=18571(ineff=16754,eff=1817) | bc++=25750 bc--=35616 inv=64216
[DSB @ 2500000 calls] bc=0 isBypassOn=true| real=2131189 virt=22928 notrack=345882 | touchRes=42795(eff=33799,ineff=8996) resetRes=18571(ineff=16754,eff=1817) | bc++=25750 bc--=35616 inv=64216
[DSB @ 2600000 calls] bc=0 isBypassOn=true| real=2212048 virt=24112 notrack=363839 | touchRes=44095(eff=35099,ineff=8996) resetRes=18680(ineff=16839,eff=1841) | bc++=25835 bc--=36940 inv=74944
[DSB @ 2700000 calls] bc=0 isBypassOn=true| real=2269768 virt=26759 notrack=403472 | touchRes=45577(eff=36570,ineff=9007) resetRes=19333(ineff=17233,eff=2100) | bc++=26240 bc--=38670 inv=90618
[DSB @ 2800000 calls] bc=0 isBypassOn=true| real=2352401 virt=27876 notrack=419722 | touchRes=47251(eff=37974,ineff=9277) resetRes=21979(ineff=19747,eff=2232) | bc++=29024 bc--=40206 inv=94380
Exiting @ tick 25662612655000 because a thread reached the max instruction count
