warn: The `get_runtime_isa` function is deprecated. Please migrate away from using this function.
warn: The se.py script is deprecated. It will be removed in future releases of  gem5.
warn: The `get_runtime_isa` function is deprecated. Please migrate away from using this function.
Global frequency set at 1000000000000 ticks per second
src/base/statistics.hh:279: warn: One of the stats is a legacy stat. Legacy stat is a stat that does not belong to any statistics::Group. Legacy stat is deprecated.
src/base/remote_gdb.cc:418: warn: Sockets disabled, not accepting gdb connections
src/sim/process.cc:396: warn: Checkpoints for pipes, device drivers and sockets do not work.
gem5 Simulator System.  https://www.gem5.org
gem5 is copyrighted software; use the --copyright option for details.

gem5 version 23.0.0.1
gem5 compiled Apr  6 2026 01:50:35
gem5 started Apr  6 2026 01:52:16
gem5 executing on b49ce2a326be, pid 93423
command line: /opt/gem5/build/X86/gem5.opt --outdir=/workspace/results_l3/1MB/policy0Config1/omnetpp /workspace/configs/run_spec_l3.py --rp-type=DSBRP --l3-size=1MB --l3-assoc=16 --cpu-type=DerivO3CPU --cmd=./omnetpp_s_base.gem5-x86 '--options=-c General -r 0' --mem-size=8GB --maxinst=250000000 --caches --l2cache --l1d_size=32kB --l1i_size=32kB --l1d_assoc=8 --l1i_assoc=8 --l2_size=256kB --l2_assoc=8 --checkpoint-restore=1 --checkpoint-dir=/workspace/checkpoints/omnetpp/m5out --restore-with-cpu=AtomicSimpleCPU --standard-switch=1 --warmup-insts=50000000 --dsb-enable-bypass=true --dsb-enable-aging=false --dsb-bypass-counter=6 --dsb-virtual-bypass-counter=4 --dsb-random-promotion=0 --dsb-minimum-bypass-counter=8

info: Standard input is not a terminal, disabling listeners.
Replacement policy: DSBRP
L1I size: 32kB, assoc: 8
L1D size: 32kB, assoc: 8
L2 size: 256kB, assoc: 8
L3 size: 1MB, L3 assoc: 16
Switch at instruction count:1
src/sim/simulate.cc:194: info: Entering event queue @ 27633443439000.  Starting simulation...
src/sim/power_state.cc:105: warn: PowerState: Already in the requested power state, request ignored
Switched CPUS @ tick 27633443440000
switching cpus
Switch at instruction count:50000000
src/sim/simulate.cc:194: info: Entering event queue @ 27633443440000.  Starting simulation...
[DSB @ 100000 calls] bc=0 isBypassOn=true| real=68395 virt=1980 notrack=29624 | touchRes=4544(eff=3835,ineff=709) resetRes=523(ineff=410,eff=113) | bc++=1119 bc--=3948 inv=5312
[DSB @ 200000 calls] bc=0 isBypassOn=true| real=156183 virt=2691 notrack=41125 | touchRes=9392(eff=8677,ineff=715) resetRes=1149(ineff=1022,eff=127) | bc++=1737 bc--=8804 inv=13206
[DSB @ 300000 calls] bc=3 isBypassOn=true| real=244363 virt=3376 notrack=52260 | touchRes=14137(eff=13414,ineff=723) resetRes=1809(ineff=1665,eff=144) | bc++=2388 bc--=13558 inv=21217
[DSB @ 400000 calls] bc=0 isBypassOn=true| real=333704 virt=4084 notrack=62211 | touchRes=18839(eff=18111,ineff=728) resetRes=2456(ineff=2300,eff=156) | bc++=3028 bc--=18267 inv=28548
[DSB @ 500000 calls] bc=0 isBypassOn=true| real=423109 virt=4756 notrack=72134 | touchRes=23269(eff=22535,ineff=734) resetRes=3055(ineff=2885,eff=170) | bc++=3619 bc--=22705 inv=35672
[DSB @ 600000 calls] bc=0 isBypassOn=true| real=510091 virt=5587 notrack=84321 | touchRes=28293(eff=27549,ineff=744) resetRes=3765(ineff=3581,eff=184) | bc++=4325 bc--=27733 inv=43951
[DSB @ 700000 calls] bc=0 isBypassOn=true| real=598668 virt=6316 notrack=95015 | touchRes=33071(eff=32324,ineff=747) resetRes=4456(ineff=4255,eff=201) | bc++=5002 bc--=32525 inv=51540
src/sim/simulate.cc:194: info: Entering event queue @ 27792641066500.  Starting simulation...
Switching CPUS @ tick 27792641066500
Simulation ends instruction count:250000000
switching cpus
**** REAL SIMULATION ****
src/sim/simulate.cc:194: info: Entering event queue @ 27792641622750.  Starting simulation...
[DSB @ 800000 calls] bc=0 isBypassOn=true| real=686045 virt=7130 notrack=106824 | touchRes=37983(eff=37229,ineff=754) resetRes=5200(ineff=4975,eff=225) | bc++=5729 bc--=37454 inv=59925
[DSB @ 900000 calls] bc=0 isBypassOn=true| real=775492 virt=7810 notrack=116697 | touchRes=42788(eff=42021,ineff=767) resetRes=5865(ineff=5626,eff=239) | bc++=6393 bc--=42260 inv=67139
[DSB @ 1000000 calls] bc=0 isBypassOn=true| real=865391 virt=8442 notrack=126166 | touchRes=47333(eff=46565,ineff=768) resetRes=6472(ineff=6220,eff=252) | bc++=6988 bc--=46817 inv=74179
[DSB @ 1100000 calls] bc=0 isBypassOn=true| real=954600 virt=9045 notrack=136354 | touchRes=52171(eff=51395,ineff=776) resetRes=7196(ineff=6927,eff=269) | bc++=7703 bc--=51664 inv=81698
[DSB @ 1200000 calls] bc=0 isBypassOn=true| real=1044313 virt=9718 notrack=145968 | touchRes=56897(eff=56111,ineff=786) resetRes=7895(ineff=7605,eff=290) | bc++=8391 bc--=56401 inv=88856
[DSB @ 1300000 calls] bc=0 isBypassOn=true| real=1133877 virt=10328 notrack=155794 | touchRes=61724(eff=60930,ineff=794) resetRes=8561(ineff=8251,eff=310) | bc++=9045 bc--=61240 inv=96167
[DSB @ 1400000 calls] bc=0 isBypassOn=true| real=1223194 virt=10985 notrack=165820 | touchRes=66581(eff=65775,ineff=806) resetRes=9222(ineff=8889,eff=333) | bc++=9695 bc--=66108 inv=103605
[DSB @ 1500000 calls] bc=1 isBypassOn=true| real=1313014 virt=11601 notrack=175384 | touchRes=71197(eff=70387,ineff=810) resetRes=9858(ineff=9512,eff=346) | bc++=10322 bc--=70733 inv=110743
[DSB @ 1600000 calls] bc=0 isBypassOn=true| real=1402297 virt=12299 notrack=185403 | touchRes=76087(eff=75271,ineff=816) resetRes=10535(ineff=10173,eff=362) | bc++=10989 bc--=75633 inv=118157
[DSB @ 1700000 calls] bc=0 isBypassOn=true| real=1492260 virt=12929 notrack=194810 | touchRes=80782(eff=79959,ineff=823) resetRes=11183(ineff=10803,eff=380) | bc++=11626 bc--=80339 inv=125223
[DSB @ 1800000 calls] bc=0 isBypassOn=true| real=1580113 virt=13695 notrack=206191 | touchRes=85687(eff=84859,ineff=828) resetRes=11824(ineff=11427,eff=397) | bc++=12255 bc--=85256 inv=133110
[DSB @ 1900000 calls] bc=0 isBypassOn=true| real=1669144 virt=14428 notrack=216427 | touchRes=90354(eff=89515,ineff=839) resetRes=12406(ineff=11997,eff=409) | bc++=12836 bc--=89924 inv=140465
[DSB @ 2000000 calls] bc=0 isBypassOn=true| real=1756807 virt=15160 notrack=228032 | touchRes=95592(eff=94745,ineff=847) resetRes=13100(ineff=12673,eff=427) | bc++=13520 bc--=95172 inv=148432
[DSB @ 2100000 calls] bc=0 isBypassOn=true| real=1846352 virt=15871 notrack=237776 | touchRes=100314(eff=99461,ineff=853) resetRes=13732(ineff=13287,eff=445) | bc++=14140 bc--=99906 inv=155638
[DSB @ 2200000 calls] bc=0 isBypassOn=true| real=1934931 virt=16622 notrack=248446 | touchRes=105226(eff=104367,ineff=859) resetRes=14415(ineff=13957,eff=458) | bc++=14816 bc--=104825 inv=163412
[DSB @ 2300000 calls] bc=0 isBypassOn=true| real=2023879 virt=17334 notrack=258786 | touchRes=110143(eff=109269,ineff=874) resetRes=15088(ineff=14609,eff=479) | bc++=15483 bc--=109748 inv=171014
[DSB @ 2400000 calls] bc=2 isBypassOn=true| real=2110156 virt=18180 notrack=271663 | touchRes=115365(eff=114479,ineff=886) resetRes=15808(ineff=15307,eff=501) | bc++=16193 bc--=114980 inv=179556
[DSB @ 2500000 calls] bc=0 isBypassOn=true| real=2199408 virt=18878 notrack=281713 | touchRes=120211(eff=119319,ineff=892) resetRes=16453(ineff=15931,eff=522) | bc++=16823 bc--=119841 inv=186935
[DSB @ 2600000 calls] bc=0 isBypassOn=true| real=2289447 virt=19506 notrack=291046 | touchRes=124787(eff=123888,ineff=899) resetRes=17049(ineff=16511,eff=538) | bc++=17410 bc--=124426 inv=193921
[DSB @ 2700000 calls] bc=0 isBypassOn=true| real=2379060 virt=20138 notrack=300801 | touchRes=129430(eff=128518,ineff=912) resetRes=17729(ineff=17173,eff=556) | bc++=18085 bc--=129074 inv=201185
[DSB @ 2800000 calls] bc=0 isBypassOn=true| real=2469248 virt=20748 notrack=310003 | touchRes=134094(eff=133180,ineff=914) resetRes=18360(ineff=17794,eff=566) | bc++=18708 bc--=133746 inv=208108
[DSB @ 2900000 calls] bc=0 isBypassOn=true| real=2555924 virt=21590 notrack=322485 | touchRes=139158(eff=138234,ineff=924) resetRes=19022(ineff=18441,eff=581) | bc++=19365 bc--=138815 inv=216516
[DSB @ 3000000 calls] bc=0 isBypassOn=true| real=2645591 virt=22237 notrack=332171 | touchRes=143909(eff=142979,ineff=930) resetRes=19662(ineff=19067,eff=595) | bc++=19997 bc--=143574 inv=223775
[DSB @ 3100000 calls] bc=1 isBypassOn=true| real=2735953 virt=22847 notrack=341199 | touchRes=148530(eff=147591,ineff=939) resetRes=20316(ineff=19712,eff=604) | bc++=20651 bc--=148195 inv=230691
[DSB @ 3200000 calls] bc=0 isBypassOn=true| real=2825467 virt=23469 notrack=351063 | touchRes=153244(eff=152297,ineff=947) resetRes=21003(ineff=20385,eff=618) | bc++=21332 bc--=152915 inv=238029
[DSB @ 3300000 calls] bc=0 isBypassOn=true| real=2912856 virt=24213 notrack=362930 | touchRes=158268(eff=157315,ineff=953) resetRes=21646(ineff=21011,eff=635) | bc++=21964 bc--=157950 inv=245911
[DSB @ 3400000 calls] bc=0 isBypassOn=true| real=2992817 virt=25461 notrack=381721 | touchRes=162922(eff=161956,ineff=966) resetRes=22221(ineff=21559,eff=662) | bc++=22525 bc--=162618 inv=254176
[DSB @ 3500000 calls] bc=0 isBypassOn=true| real=3082504 virt=26139 notrack=391356 | touchRes=167550(eff=166574,ineff=976) resetRes=22889(ineff=22203,eff=686) | bc++=23179 bc--=167260 inv=261381
[DSB @ 3600000 calls] bc=0 isBypassOn=true| real=3169818 virt=26924 notrack=403257 | touchRes=172361(eff=171375,ineff=986) resetRes=23530(ineff=22826,eff=704) | bc++=23812 bc--=172079 inv=269080
[DSB @ 3700000 calls] bc=0 isBypassOn=true| real=3259239 virt=27605 notrack=413155 | touchRes=177138(eff=176144,ineff=994) resetRes=24165(ineff=23446,eff=719) | bc++=24440 bc--=176863 inv=276267
[DSB @ 3800000 calls] bc=0 isBypassOn=true| real=3348750 virt=28249 notrack=423000 | touchRes=182002(eff=181003,ineff=999) resetRes=24830(ineff=24100,eff=730) | bc++=25099 bc--=181733 inv=283657
[DSB @ 3900000 calls] bc=0 isBypassOn=true| real=3438706 virt=28835 notrack=432458 | touchRes=186590(eff=185588,ineff=1002) resetRes=25489(ineff=24734,eff=755) | bc++=25736 bc--=186343 inv=290862
[DSB @ 4000000 calls] bc=0 isBypassOn=true| real=3528997 virt=29443 notrack=441559 | touchRes=191200(eff=190190,ineff=1010) resetRes=26140(ineff=25369,eff=771) | bc++=26379 bc--=190961 inv=297783
[DSB @ 4100000 calls] bc=0 isBypassOn=true| real=3619043 virt=30087 notrack=450869 | touchRes=195762(eff=194749,ineff=1013) resetRes=26770(ineff=25987,eff=783) | bc++=27000 bc--=195532 inv=304748
[DSB @ 4200000 calls] bc=0 isBypassOn=true| real=3709105 virt=30705 notrack=460189 | touchRes=200277(eff=199258,ineff=1019) resetRes=27423(ineff=26632,eff=791) | bc++=27651 bc--=200049 inv=311812
[DSB @ 4300000 calls] bc=0 isBypassOn=true| real=3798691 virt=31341 notrack=469967 | touchRes=205052(eff=204025,ineff=1027) resetRes=28060(ineff=27249,eff=811) | bc++=28276 bc--=204836 inv=319075
[DSB @ 4400000 calls] bc=0 isBypassOn=true| real=3887862 virt=32032 notrack=480105 | touchRes=209990(eff=208952,ineff=1038) resetRes=28778(ineff=27946,eff=832) | bc++=28984 bc--=209784 inv=326500
[DSB @ 4500000 calls] bc=0 isBypassOn=true| real=3976660 virt=32748 notrack=490591 | touchRes=214874(eff=213829,ineff=1045) resetRes=29458(ineff=28605,eff=853) | bc++=29650 bc--=214682 inv=334245
[DSB @ 4600000 calls] bc=0 isBypassOn=true| real=4065868 virt=33419 notrack=500712 | touchRes=219718(eff=218661,ineff=1057) resetRes=30128(ineff=29257,eff=871) | bc++=30314 bc--=219532 inv=341726
[DSB @ 4700000 calls] bc=1 isBypassOn=true| real=4150644 virt=34394 notrack=514961 | touchRes=224727(eff=223658,ineff=1069) resetRes=30825(ineff=29928,eff=897) | bc++=30997 bc--=224555 inv=349943
[DSB @ 4800000 calls] bc=0 isBypassOn=true| real=4239329 virt=35081 notrack=525589 | touchRes=229593(eff=228521,ineff=1072) resetRes=31515(ineff=30600,eff=915) | bc++=31672 bc--=229436 inv=357673
[DSB @ 4900000 calls] bc=0 isBypassOn=true| real=4328265 virt=35792 notrack=535942 | touchRes=234607(eff=233526,ineff=1081) resetRes=32203(ineff=31270,eff=933) | bc++=32351 bc--=234459 inv=365093
Exiting @ tick 28063845794000 because a thread reached the max instruction count
