warn: The `get_runtime_isa` function is deprecated. Please migrate away from using this function.
warn: The se.py script is deprecated. It will be removed in future releases of  gem5.
warn: The `get_runtime_isa` function is deprecated. Please migrate away from using this function.
Global frequency set at 1000000000000 ticks per second
src/base/statistics.hh:279: warn: One of the stats is a legacy stat. Legacy stat is a stat that does not belong to any statistics::Group. Legacy stat is deprecated.
src/base/remote_gdb.cc:418: warn: Sockets disabled, not accepting gdb connections
src/sim/process.cc:396: warn: Checkpoints for pipes, device drivers and sockets do not work.
gem5 Simulator System.  https://www.gem5.org
gem5 is copyrighted software; use the --copyright option for details.

gem5 version 23.0.0.1
gem5 compiled Apr  6 2026 01:50:35
gem5 started Apr  6 2026 01:52:16
gem5 executing on b49ce2a326be, pid 93422
command line: /opt/gem5/build/X86/gem5.opt --outdir=/workspace/results_l3/1MB/policy0Config1/mcf /workspace/configs/run_spec_l3.py --rp-type=DSBRP --l3-size=1MB --l3-assoc=16 --cpu-type=DerivO3CPU --cmd=./mcf_s_base.gem5-x86 --options=inp.in --mem-size=8GB --maxinst=250000000 --caches --l2cache --l1d_size=32kB --l1i_size=32kB --l1d_assoc=8 --l1i_assoc=8 --l2_size=256kB --l2_assoc=8 --checkpoint-restore=1 --checkpoint-dir=/workspace/checkpoints/mcf/m5out --restore-with-cpu=AtomicSimpleCPU --standard-switch=1 --warmup-insts=50000000 --dsb-enable-bypass=true --dsb-enable-aging=false --dsb-bypass-counter=6 --dsb-virtual-bypass-counter=4 --dsb-random-promotion=0 --dsb-minimum-bypass-counter=8

info: Standard input is not a terminal, disabling listeners.
Replacement policy: DSBRP
L1I size: 32kB, assoc: 8
L1D size: 32kB, assoc: 8
L2 size: 256kB, assoc: 8
L3 size: 1MB, L3 assoc: 16
Switch at instruction count:1
src/sim/simulate.cc:194: info: Entering event queue @ 24065090964500.  Starting simulation...
src/sim/simulate.cc:194: info: Entering event queue @ 24065090965500.  Starting simulation...
src/sim/power_state.cc:105: warn: PowerState: Already in the requested power state, request ignored
Switched CPUS @ tick 24065090965500
switching cpus
Switch at instruction count:50000000
src/sim/simulate.cc:194: info: Entering event queue @ 24065090966000.  Starting simulation...
[DSB @ 100000 calls] bc=8 isBypassOn=false| real=9726 virt=5600 notrack=84673 | touchRes=1896(eff=802,ineff=1094) resetRes=121(ineff=89,eff=32) | bc++=1183 bc--=834 inv=4854
[DSB @ 200000 calls] bc=3 isBypassOn=true| real=9801 virt=11874 notrack=178324 | touchRes=2429(eff=817,ineff=1612) resetRes=186(ineff=89,eff=97) | bc++=1701 bc--=914 inv=10262
[DSB @ 300000 calls] bc=8 isBypassOn=false| real=30002 virt=16864 notrack=253133 | touchRes=4420(eff=2384,ineff=2036) resetRes=347(ineff=206,eff=141) | bc++=2242 bc--=2525 inv=16353
[DSB @ 400000 calls] bc=8 isBypassOn=false| real=30119 virt=23120 notrack=346760 | touchRes=4991(eff=2412,ineff=2579) resetRes=402(ineff=206,eff=196) | bc++=2785 bc--=2608 inv=21748
[DSB @ 500000 calls] bc=8 isBypassOn=false| real=30186 virt=29451 notrack=440362 | touchRes=5429(eff=2423,ineff=3006) resetRes=433(ineff=206,eff=227) | bc++=3212 bc--=2650 inv=27284
src/sim/simulate.cc:194: info: Entering event queue @ 24231453653500.  Starting simulation...
Switching CPUS @ tick 24231453653500
Simulation ends instruction count:250000000
switching cpus
**** REAL SIMULATION ****
src/sim/simulate.cc:194: info: Entering event queue @ 24231453807250.  Starting simulation...
[DSB @ 600000 calls] bc=8 isBypassOn=true| real=72389 virt=33135 notrack=494475 | touchRes=8377(eff=5136,ineff=3241) resetRes=555(ineff=306,eff=249) | bc++=3547 bc--=5385 inv=33326
[DSB @ 700000 calls] bc=8 isBypassOn=false| real=95593 virt=37842 notrack=566564 | touchRes=10266(eff=6762,ineff=3504) resetRes=623(ineff=352,eff=271) | bc++=3856 bc--=7033 inv=39192
[DSB @ 800000 calls] bc=0 isBypassOn=true| real=111537 virt=43130 notrack=645332 | touchRes=11899(eff=8036,ineff=3863) resetRes=673(ineff=372,eff=301) | bc++=4235 bc--=8337 inv=44540
[DSB @ 900000 calls] bc=8 isBypassOn=false| real=162188 virt=46175 notrack=691636 | touchRes=15690(eff=11581,ineff=4109) resetRes=910(ineff=586,eff=324) | bc++=4695 bc--=11905 inv=51482
[DSB @ 1000000 calls] bc=8 isBypassOn=false| real=166432 virt=52121 notrack=781446 | touchRes=17047(eff=12409,ineff=4638) resetRes=1023(ineff=648,eff=375) | bc++=5286 bc--=12784 inv=57332
[DSB @ 1100000 calls] bc=8 isBypassOn=false| real=171973 virt=58063 notrack=869963 | touchRes=18393(eff=13262,ineff=5131) resetRes=1150(ineff=712,eff=438) | bc++=5843 bc--=13700 inv=63237
[DSB @ 1200000 calls] bc=8 isBypassOn=false| real=181822 virt=63721 notrack=954456 | touchRes=19763(eff=14172,ineff=5591) resetRes=1257(ineff=780,eff=477) | bc++=6371 bc--=14649 inv=69110
[DSB @ 1300000 calls] bc=0 isBypassOn=true| real=211662 virt=68253 notrack=1020084 | touchRes=21560(eff=15664,ineff=5896) resetRes=1315(ineff=816,eff=499) | bc++=6712 bc--=16163 inv=73779
[DSB @ 1400000 calls] bc=0 isBypassOn=true| real=218825 virt=74110 notrack=1107064 | touchRes=22709(eff=16420,ineff=6289) resetRes=1371(ineff=840,eff=531) | bc++=7129 bc--=16951 inv=79771
[DSB @ 1500000 calls] bc=8 isBypassOn=false| real=223751 virt=79951 notrack=1196297 | touchRes=23130(eff=16514,ineff=6616) resetRes=1426(ineff=859,eff=567) | bc++=7475 bc--=17081 inv=85819
[DSB @ 1600000 calls] bc=8 isBypassOn=false| real=223764 virt=86137 notrack=1290098 | touchRes=23590(eff=16519,ineff=7071) resetRes=1460(ineff=859,eff=601) | bc++=7930 bc--=17120 inv=91194
[DSB @ 1700000 calls] bc=8 isBypassOn=false| real=242121 virt=91249 notrack=1366629 | touchRes=25712(eff=18164,ineff=7548) resetRes=1633(ineff=981,eff=652) | bc++=8529 bc--=18816 inv=97288
[DSB @ 1800000 calls] bc=0 isBypassOn=true| real=266388 virt=95913 notrack=1437698 | touchRes=28519(eff=20546,ineff=7973) resetRes=1813(ineff=1105,eff=708) | bc++=9078 bc--=21254 inv=102994
[DSB @ 1900000 calls] bc=8 isBypassOn=false| real=285431 virt=100979 notrack=1513589 | touchRes=30560(eff=22207,ineff=8353) resetRes=1992(ineff=1261,eff=731) | bc++=9614 bc--=22938 inv=110099
[DSB @ 2000000 calls] bc=8 isBypassOn=false| real=327500 virt=104509 notrack=1567990 | touchRes=33187(eff=24575,ineff=8612) resetRes=2064(ineff=1308,eff=756) | bc++=9920 bc--=25331 inv=115603
[DSB @ 2100000 calls] bc=0 isBypassOn=true| real=375448 virt=107814 notrack=1616737 | touchRes=36398(eff=27562,ineff=8836) resetRes=2163(ineff=1390,eff=773) | bc++=10226 bc--=28335 inv=120530
[DSB @ 2200000 calls] bc=8 isBypassOn=false| real=401483 virt=112384 notrack=1686132 | touchRes=38587(eff=29490,ineff=9097) resetRes=2261(ineff=1471,eff=790) | bc++=10568 bc--=30280 inv=127306
[DSB @ 2300000 calls] bc=7 isBypassOn=true| real=412058 virt=117835 notrack=1770106 | touchRes=39832(eff=30383,ineff=9449) resetRes=2302(ineff=1488,eff=814) | bc++=10937 bc--=31197 inv=133116
[DSB @ 2400000 calls] bc=8 isBypassOn=false| real=418953 virt=123590 notrack=1857456 | touchRes=41206(eff=31266,ineff=9940) resetRes=2372(ineff=1514,eff=858) | bc++=11454 bc--=32124 inv=138512
[DSB @ 2500000 calls] bc=8 isBypassOn=false| real=419056 virt=129857 notrack=1951086 | touchRes=41758(eff=31285,ineff=10473) resetRes=2494(ineff=1561,eff=933) | bc++=12034 bc--=32218 inv=144288
[DSB @ 2600000 calls] bc=0 isBypassOn=true| real=434005 virt=135183 notrack=2030811 | touchRes=43933(eff=32975,ineff=10958) resetRes=2616(ineff=1633,eff=983) | bc++=12591 bc--=33958 inv=149664
[DSB @ 2700000 calls] bc=0 isBypassOn=true| real=476395 virt=138831 notrack=2084773 | touchRes=47666(eff=36407,ineff=11259) resetRes=2799(ineff=1788,eff=1011) | bc++=13047 bc--=37418 inv=156337
[DSB @ 2800000 calls] bc=0 isBypassOn=true| real=536100 virt=141395 notrack=2122504 | touchRes=50938(eff=39521,ineff=11417) resetRes=2896(ineff=1878,eff=1018) | bc++=13295 bc--=40539 inv=161746
[DSB @ 2900000 calls] bc=8 isBypassOn=false| real=583155 virt=144691 notrack=2172153 | touchRes=53836(eff=42238,ineff=11598) resetRes=3016(ineff=1991,eff=1025) | bc++=13589 bc--=43263 inv=168036
[DSB @ 3000000 calls] bc=8 isBypassOn=false| real=583176 virt=150817 notrack=2266006 | touchRes=54223(eff=42243,ineff=11980) resetRes=3047(ineff=1991,eff=1056) | bc++=13971 bc--=43299 inv=173411
Exiting @ tick 24457016364500 because a thread reached the max instruction count
