warn: The `get_runtime_isa` function is deprecated. Please migrate away from using this function.
warn: The se.py script is deprecated. It will be removed in future releases of  gem5.
warn: The `get_runtime_isa` function is deprecated. Please migrate away from using this function.
Global frequency set at 1000000000000 ticks per second
src/base/statistics.hh:279: warn: One of the stats is a legacy stat. Legacy stat is a stat that does not belong to any statistics::Group. Legacy stat is deprecated.
src/base/remote_gdb.cc:418: warn: Sockets disabled, not accepting gdb connections
src/sim/process.cc:396: warn: Checkpoints for pipes, device drivers and sockets do not work.
gem5 Simulator System.  https://www.gem5.org
gem5 is copyrighted software; use the --copyright option for details.

gem5 version 23.0.0.1
gem5 compiled Apr  6 2026 01:50:35
gem5 started Apr  6 2026 08:20:02
gem5 executing on b49ce2a326be, pid 161812
command line: /opt/gem5/build/X86/gem5.opt --outdir=/workspace/results_l3/1MB/policy1Config3/mcf /workspace/configs/run_spec_l3.py --rp-type=DSBRP --l3-size=1MB --l3-assoc=16 --cpu-type=DerivO3CPU --cmd=./mcf_s_base.gem5-x86 --options=inp.in --mem-size=8GB --maxinst=250000000 --caches --l2cache --l1d_size=32kB --l1i_size=32kB --l1d_assoc=8 --l1i_assoc=8 --l2_size=256kB --l2_assoc=8 --checkpoint-restore=1 --checkpoint-dir=/workspace/checkpoints/mcf/m5out --restore-with-cpu=AtomicSimpleCPU --standard-switch=1 --warmup-insts=50000000 --dsb-enable-bypass=true --dsb-enable-aging=true --dsb-bypass-counter=3 --dsb-virtual-bypass-counter=3 --dsb-random-promotion=4 --dsb-minimum-bypass-counter=12

info: Standard input is not a terminal, disabling listeners.
Replacement policy: DSBRP
L1I size: 32kB, assoc: 8
L1D size: 32kB, assoc: 8
L2 size: 256kB, assoc: 8
L3 size: 1MB, L3 assoc: 16
Switch at instruction count:1
src/sim/simulate.cc:194: info: Entering event queue @ 24065090964500.  Starting simulation...
src/sim/simulate.cc:194: info: Entering event queue @ 24065090965500.  Starting simulation...
src/sim/power_state.cc:105: warn: PowerState: Already in the requested power state, request ignored
Switched CPUS @ tick 24065090965500
switching cpus
Switch at instruction count:50000000
src/sim/simulate.cc:194: info: Entering event queue @ 24065090966000.  Starting simulation...
[DSB @ 100000 calls] bc=12 isBypassOn=false| real=299 virt=12339 notrack=87361 | touchRes=8573(eff=106,ineff=8467) resetRes=644(ineff=31,eff=613) | bc++=8498 bc--=719 inv=210
[DSB @ 200000 calls] bc=12 isBypassOn=false| real=300 virt=24757 notrack=174942 | touchRes=17341(eff=106,ineff=17235) resetRes=1316(ineff=31,eff=1285) | bc++=17266 bc--=1391 inv=584
[DSB @ 300000 calls] bc=12 isBypassOn=false| real=305 virt=37245 notrack=262449 | touchRes=26101(eff=106,ineff=25995) resetRes=2018(ineff=31,eff=1987) | bc++=26026 bc--=2093 inv=947
src/sim/simulate.cc:194: info: Entering event queue @ 24222177355500.  Starting simulation...
Switching CPUS @ tick 24222177355500
Simulation ends instruction count:250000000
switching cpus
**** REAL SIMULATION ****
src/sim/simulate.cc:194: info: Entering event queue @ 24222177559250.  Starting simulation...
[DSB @ 400000 calls] bc=12 isBypassOn=false| real=309 virt=49830 notrack=349860 | touchRes=34844(eff=107,ineff=34737) resetRes=2724(ineff=31,eff=2693) | bc++=34768 bc--=2800 inv=1307
[DSB @ 500000 calls] bc=12 isBypassOn=false| real=311 virt=62437 notrack=437251 | touchRes=43739(eff=107,ineff=43632) resetRes=3423(ineff=31,eff=3392) | bc++=43663 bc--=3499 inv=1658
[DSB @ 600000 calls] bc=12 isBypassOn=false| real=317 virt=74811 notrack=524871 | touchRes=52350(eff=107,ineff=52243) resetRes=4183(ineff=31,eff=4152) | bc++=52274 bc--=4259 inv=2007
[DSB @ 700000 calls] bc=12 isBypassOn=false| real=318 virt=87309 notrack=612372 | touchRes=61010(eff=107,ineff=60903) resetRes=4890(ineff=31,eff=4859) | bc++=60934 bc--=4966 inv=2365
[DSB @ 800000 calls] bc=12 isBypassOn=false| real=321 virt=99891 notrack=699787 | touchRes=70021(eff=107,ineff=69914) resetRes=5622(ineff=31,eff=5591) | bc++=69945 bc--=5698 inv=2727
[DSB @ 900000 calls] bc=12 isBypassOn=false| real=324 virt=112480 notrack=787195 | touchRes=78686(eff=107,ineff=78579) resetRes=6322(ineff=32,eff=6290) | bc++=78611 bc--=6397 inv=3107
[DSB @ 1000000 calls] bc=12 isBypassOn=false| real=326 virt=124908 notrack=874765 | touchRes=87353(eff=108,ineff=87245) resetRes=7021(ineff=32,eff=6989) | bc++=87277 bc--=7097 inv=3435
[DSB @ 1100000 calls] bc=12 isBypassOn=true| real=327 virt=137352 notrack=962320 | touchRes=96143(eff=108,ineff=96035) resetRes=7724(ineff=32,eff=7692) | bc++=96067 bc--=7800 inv=3787
[DSB @ 1200000 calls] bc=12 isBypassOn=false| real=329 virt=149957 notrack=1049713 | touchRes=104677(eff=109,ineff=104568) resetRes=8443(ineff=32,eff=8411) | bc++=104600 bc--=8520 inv=4110
[DSB @ 1300000 calls] bc=12 isBypassOn=false| real=335 virt=162416 notrack=1137248 | touchRes=113413(eff=109,ineff=113304) resetRes=9141(ineff=33,eff=9108) | bc++=113337 bc--=9217 inv=4481
[DSB @ 1400000 calls] bc=12 isBypassOn=false| real=336 virt=175017 notrack=1224646 | touchRes=122395(eff=109,ineff=122286) resetRes=9834(ineff=33,eff=9801) | bc++=122319 bc--=9910 inv=4861
[DSB @ 1500000 calls] bc=12 isBypassOn=false| real=339 virt=187574 notrack=1312086 | touchRes=131167(eff=109,ineff=131058) resetRes=10593(ineff=33,eff=10560) | bc++=131091 bc--=10669 inv=5179
[DSB @ 1600000 calls] bc=12 isBypassOn=false| real=341 virt=200180 notrack=1399478 | touchRes=139859(eff=109,ineff=139750) resetRes=11307(ineff=33,eff=11274) | bc++=139783 bc--=11383 inv=5521
[DSB @ 1700000 calls] bc=12 isBypassOn=false| real=346 virt=212751 notrack=1486902 | touchRes=148656(eff=109,ineff=148547) resetRes=12014(ineff=33,eff=11981) | bc++=148580 bc--=12090 inv=5885
[DSB @ 1800000 calls] bc=12 isBypassOn=false| real=348 virt=225252 notrack=1574399 | touchRes=157284(eff=109,ineff=157175) resetRes=12721(ineff=33,eff=12688) | bc++=157208 bc--=12797 inv=6231
[DSB @ 1900000 calls] bc=12 isBypassOn=false| real=350 virt=237712 notrack=1661937 | touchRes=165945(eff=109,ineff=165836) resetRes=13472(ineff=33,eff=13439) | bc++=165869 bc--=13548 inv=6589
[DSB @ 2000000 calls] bc=11 isBypassOn=true| real=355 virt=250031 notrack=1749613 | touchRes=174718(eff=109,ineff=174609) resetRes=14139(ineff=33,eff=14106) | bc++=174642 bc--=14215 inv=6977
[DSB @ 2100000 calls] bc=12 isBypassOn=false| real=357 virt=262526 notrack=1837116 | touchRes=183421(eff=109,ineff=183312) resetRes=14849(ineff=33,eff=14816) | bc++=183345 bc--=14925 inv=7337
[DSB @ 2200000 calls] bc=12 isBypassOn=false| real=362 virt=274968 notrack=1924669 | touchRes=192171(eff=110,ineff=192061) resetRes=15599(ineff=33,eff=15566) | bc++=192094 bc--=15676 inv=7682
[DSB @ 2300000 calls] bc=12 isBypassOn=false| real=379 virt=287537 notrack=2012083 | touchRes=200715(eff=111,ineff=200604) resetRes=16331(ineff=33,eff=16298) | bc++=200637 bc--=16409 inv=8070
Exiting @ tick 24426355376500 because a thread reached the max instruction count
