warn: The `get_runtime_isa` function is deprecated. Please migrate away from using this function.
warn: The se.py script is deprecated. It will be removed in future releases of  gem5.
warn: The `get_runtime_isa` function is deprecated. Please migrate away from using this function.
Global frequency set at 1000000000000 ticks per second
src/base/statistics.hh:279: warn: One of the stats is a legacy stat. Legacy stat is a stat that does not belong to any statistics::Group. Legacy stat is deprecated.
src/base/remote_gdb.cc:418: warn: Sockets disabled, not accepting gdb connections
src/sim/process.cc:396: warn: Checkpoints for pipes, device drivers and sockets do not work.
gem5 Simulator System.  https://www.gem5.org
gem5 is copyrighted software; use the --copyright option for details.

gem5 version 23.0.0.1
gem5 compiled Apr  6 2026 01:50:35
gem5 started Apr  7 2026 11:48:32
gem5 executing on b49ce2a326be, pid 97593
command line: /opt/gem5/build/X86/gem5.opt --outdir=/workspace/results_l3/4MB/policy0Config3/pop2 /workspace/configs/run_spec_l3.py --rp-type=DSBRP --l3-size=4MB --l3-assoc=16 --cpu-type=DerivO3CPU --cmd=./speed_pop2_base.gem5-x86 --options= --mem-size=8GB --maxinst=250000000 --caches --l2cache --l1d_size=32kB --l1i_size=32kB --l1d_assoc=8 --l1i_assoc=8 --l2_size=256kB --l2_assoc=8 --checkpoint-restore=1 --checkpoint-dir=/workspace/checkpoints/pop2/m5out --restore-with-cpu=AtomicSimpleCPU --standard-switch=1 --warmup-insts=50000000 --dsb-enable-bypass=true --dsb-enable-aging=false --dsb-bypass-counter=3 --dsb-virtual-bypass-counter=3 --dsb-random-promotion=0 --dsb-minimum-bypass-counter=12

info: Standard input is not a terminal, disabling listeners.
Replacement policy: DSBRP
L1I size: 32kB, assoc: 8
L1D size: 32kB, assoc: 8
L2 size: 256kB, assoc: 8
L3 size: 4MB, L3 assoc: 16
Switch at instruction count:1
src/sim/simulate.cc:194: info: Entering event queue @ 28375057083500.  Starting simulation...
src/sim/simulate.cc:194: info: Entering event queue @ 28375057085000.  Starting simulation...
src/sim/power_state.cc:105: warn: PowerState: Already in the requested power state, request ignored
Switched CPUS @ tick 28375057085000
switching cpus
Switch at instruction count:50000000
src/sim/simulate.cc:194: info: Entering event queue @ 28375057086000.  Starting simulation...
[DSB @ 100000 calls] bc=9 isBypassOn=true| real=271 virt=12407 notrack=87321 | touchRes=10429(eff=202,ineff=10227) resetRes=339(ineff=27,eff=312) | bc++=10254 bc--=514 inv=985
src/sim/simulate.cc:194: info: Entering event queue @ 28514916649500.  Starting simulation...
Switching CPUS @ tick 28514916649500
Simulation ends instruction count:250000000
switching cpus
**** REAL SIMULATION ****
src/sim/simulate.cc:194: info: Entering event queue @ 28514916783000.  Starting simulation...
[DSB @ 200000 calls] bc=12 isBypassOn=false| real=292 virt=24799 notrack=174908 | touchRes=18022(eff=209,ineff=17813) resetRes=1305(ineff=36,eff=1269) | bc++=17849 bc--=1478 inv=4376
[DSB @ 300000 calls] bc=12 isBypassOn=false| real=311 virt=37179 notrack=262509 | touchRes=25638(eff=215,ineff=25423) resetRes=2229(ineff=42,eff=2187) | bc++=25465 bc--=2402 inv=7839
[DSB @ 400000 calls] bc=0 isBypassOn=true| real=16715 virt=47675 notrack=335609 | touchRes=34421(eff=5194,ineff=29227) resetRes=5979(ineff=2569,eff=3410) | bc++=31796 bc--=8604 inv=17247
[DSB @ 500000 calls] bc=12 isBypassOn=true| real=36285 virt=57610 notrack=406104 | touchRes=43912(eff=10305,ineff=33607) resetRes=11121(ineff=6230,eff=4891) | bc++=39837 bc--=15196 inv=25435
[DSB @ 600000 calls] bc=0 isBypassOn=true| real=62417 virt=66802 notrack=470780 | touchRes=51156(eff=15763,ineff=35393) resetRes=16925(ineff=10395,eff=6530) | bc++=45788 bc--=22293 inv=37874
[DSB @ 700000 calls] bc=0 isBypassOn=true| real=103977 virt=74140 notrack=521882 | touchRes=63058(eff=25875,ineff=37183) resetRes=21522(ineff=13808,eff=7714) | bc++=50991 bc--=33589 inv=51328
[DSB @ 800000 calls] bc=0 isBypassOn=true| real=157436 virt=79948 notrack=562615 | touchRes=69333(eff=29233,ineff=40100) resetRes=22722(ineff=14664,eff=8058) | bc++=54764 bc--=37291 inv=56483
[DSB @ 900000 calls] bc=12 isBypassOn=false| real=193765 virt=87755 notrack=618479 | touchRes=72821(eff=29318,ineff=43503) resetRes=23838(ineff=15027,eff=8811) | bc++=58530 bc--=38129 inv=62761
[DSB @ 1000000 calls] bc=12 isBypassOn=false| real=194321 virt=100279 notrack=705399 | touchRes=79383(eff=29500,ineff=49883) resetRes=25196(ineff=15110,eff=10086) | bc++=64993 bc--=39586 inv=67228
[DSB @ 1100000 calls] bc=9 isBypassOn=true| real=194391 virt=112739 notrack=792869 | touchRes=85828(eff=29516,ineff=56312) resetRes=26392(ineff=15142,eff=11250) | bc++=71454 bc--=40766 inv=71479
[DSB @ 1200000 calls] bc=12 isBypassOn=false| real=194435 virt=125011 notrack=880553 | touchRes=92328(eff=29531,ineff=62797) resetRes=27569(ineff=15150,eff=12419) | bc++=77947 bc--=41950 inv=75647
[DSB @ 1300000 calls] bc=12 isBypassOn=true| real=219690 virt=134305 notrack=946004 | touchRes=101873(eff=35693,ineff=66180) resetRes=30620(ineff=17080,eff=13540) | bc++=83260 bc--=49233 inv=86232
[DSB @ 1400000 calls] bc=6 isBypassOn=true| real=236627 virt=144608 notrack=1018764 | touchRes=110782(eff=39810,ineff=70972) resetRes=35582(ineff=20567,eff=15015) | bc++=91539 bc--=54825 inv=94304
[DSB @ 1500000 calls] bc=0 isBypassOn=true| real=265363 virt=153524 notrack=1081112 | touchRes=118625(eff=45788,ineff=72837) resetRes=41006(ineff=24663,eff=16343) | bc++=97500 bc--=62131 inv=107732
Exiting @ tick 28686238323000 because a thread reached the max instruction count
