warn: The `get_runtime_isa` function is deprecated. Please migrate away from using this function.
warn: The se.py script is deprecated. It will be removed in future releases of  gem5.
warn: The `get_runtime_isa` function is deprecated. Please migrate away from using this function.
Global frequency set at 1000000000000 ticks per second
src/base/statistics.hh:279: warn: One of the stats is a legacy stat. Legacy stat is a stat that does not belong to any statistics::Group. Legacy stat is deprecated.
src/base/remote_gdb.cc:418: warn: Sockets disabled, not accepting gdb connections
src/sim/process.cc:396: warn: Checkpoints for pipes, device drivers and sockets do not work.
gem5 Simulator System.  https://www.gem5.org
gem5 is copyrighted software; use the --copyright option for details.

gem5 version 23.0.0.1
gem5 compiled Apr  6 2026 01:50:35
gem5 started Apr  6 2026 09:37:51
gem5 executing on b49ce2a326be, pid 174619
command line: /opt/gem5/build/X86/gem5.opt --outdir=/workspace/results_l3/2MB/policy0Config1/omnetpp /workspace/configs/run_spec_l3.py --rp-type=DSBRP --l3-size=2MB --l3-assoc=16 --cpu-type=DerivO3CPU --cmd=./omnetpp_s_base.gem5-x86 '--options=-c General -r 0' --mem-size=8GB --maxinst=250000000 --caches --l2cache --l1d_size=32kB --l1i_size=32kB --l1d_assoc=8 --l1i_assoc=8 --l2_size=256kB --l2_assoc=8 --checkpoint-restore=1 --checkpoint-dir=/workspace/checkpoints/omnetpp/m5out --restore-with-cpu=AtomicSimpleCPU --standard-switch=1 --warmup-insts=50000000 --dsb-enable-bypass=true --dsb-enable-aging=false --dsb-bypass-counter=6 --dsb-virtual-bypass-counter=4 --dsb-random-promotion=0 --dsb-minimum-bypass-counter=8

info: Standard input is not a terminal, disabling listeners.
Replacement policy: DSBRP
L1I size: 32kB, assoc: 8
L1D size: 32kB, assoc: 8
L2 size: 256kB, assoc: 8
L3 size: 2MB, L3 assoc: 16
Switch at instruction count:1
src/sim/simulate.cc:194: info: Entering event queue @ 27633443439000.  Starting simulation...
src/sim/power_state.cc:105: warn: PowerState: Already in the requested power state, request ignored
Switched CPUS @ tick 27633443440000
switching cpus
Switch at instruction count:50000000
src/sim/simulate.cc:194: info: Entering event queue @ 27633443440000.  Starting simulation...
[DSB @ 100000 calls] bc=1 isBypassOn=true| real=38198 virt=3835 notrack=57966 | touchRes=6766(eff=4881,ineff=1885) resetRes=1678(ineff=1473,eff=205) | bc++=3358 bc--=5086 inv=7246
[DSB @ 200000 calls] bc=6 isBypassOn=true| real=105490 virt=5794 notrack=88715 | touchRes=16217(eff=14146,ineff=2071) resetRes=4521(ineff=4188,eff=333) | bc++=6259 bc--=14479 inv=21178
[DSB @ 300000 calls] bc=8 isBypassOn=false| real=175305 virt=7655 notrack=117039 | touchRes=25624(eff=23397,ineff=2227) resetRes=7595(ineff=7147,eff=448) | bc++=9374 bc--=23845 inv=35847
[DSB @ 400000 calls] bc=0 isBypassOn=true| real=243308 virt=9730 notrack=146961 | touchRes=35091(eff=32674,ineff=2417) resetRes=10613(ineff=10040,eff=573) | bc++=12457 bc--=33247 inv=50422
[DSB @ 500000 calls] bc=1 isBypassOn=true| real=302302 virt=12304 notrack=185393 | touchRes=44171(eff=41472,ineff=2699) resetRes=13223(ineff=12468,eff=755) | bc++=15167 bc--=42227 inv=64161
[DSB @ 600000 calls] bc=1 isBypassOn=true| real=374430 virt=14061 notrack=211508 | touchRes=53813(eff=50942,ineff=2871) resetRes=16482(ineff=15608,eff=874) | bc++=18479 bc--=51816 inv=78102
src/sim/simulate.cc:194: info: Entering event queue @ 27788393600500.  Starting simulation...
Switching CPUS @ tick 27788393600500
Simulation ends instruction count:250000000
switching cpus
**** REAL SIMULATION ****
src/sim/simulate.cc:194: info: Entering event queue @ 27788393844500.  Starting simulation...
[DSB @ 700000 calls] bc=1 isBypassOn=true| real=441945 virt=16123 notrack=241931 | touchRes=63269(eff=60205,ineff=3064) resetRes=19456(ineff=18446,eff=1010) | bc++=21510 bc--=61215 inv=92158
[DSB @ 800000 calls] bc=2 isBypassOn=true| real=512138 virt=17988 notrack=269873 | touchRes=72867(eff=69625,ineff=3242) resetRes=22629(ineff=21479,eff=1150) | bc++=24721 bc--=70775 inv=106494
[DSB @ 900000 calls] bc=1 isBypassOn=true| real=578801 virt=20027 notrack=301171 | touchRes=82524(eff=79067,ineff=3457) resetRes=25668(ineff=24385,eff=1283) | bc++=27842 bc--=80350 inv=121240
[DSB @ 1000000 calls] bc=0 isBypassOn=true| real=649366 virt=21863 notrack=328770 | touchRes=92142(eff=88479,ineff=3663) resetRes=29023(ineff=27622,eff=1401) | bc++=31285 bc--=89880 inv=135984
[DSB @ 1100000 calls] bc=2 isBypassOn=true| real=710443 virt=24256 notrack=365300 | touchRes=101204(eff=97301,ineff=3903) resetRes=31850(ineff=30289,eff=1561) | bc++=34192 bc--=98862 inv=150225
[DSB @ 1200000 calls] bc=0 isBypassOn=true| real=782603 virt=25965 notrack=391431 | touchRes=110758(eff=106662,ineff=4096) resetRes=35099(ineff=33439,eff=1660) | bc++=37535 bc--=108322 inv=164668
[DSB @ 1300000 calls] bc=7 isBypassOn=true| real=856310 virt=27632 notrack=416057 | touchRes=120282(eff=116012,ineff=4270) resetRes=38451(ineff=36706,eff=1745) | bc++=40976 bc--=117757 inv=178802
[DSB @ 1400000 calls] bc=0 isBypassOn=true| real=927858 virt=29373 notrack=442768 | touchRes=129947(eff=125503,ineff=4444) resetRes=41720(ineff=39877,eff=1843) | bc++=44321 bc--=127346 inv=193226
[DSB @ 1500000 calls] bc=0 isBypassOn=true| real=996347 virt=31372 notrack=472280 | touchRes=139430(eff=134748,ineff=4682) resetRes=44998(ineff=43011,eff=1987) | bc++=47693 bc--=136735 inv=207349
[DSB @ 1600000 calls] bc=0 isBypassOn=true| real=1058891 virt=33649 notrack=507459 | touchRes=148712(eff=143778,ineff=4934) resetRes=47873(ineff=45739,eff=2134) | bc++=50673 bc--=145912 inv=221656
[DSB @ 1700000 calls] bc=1 isBypassOn=true| real=1130517 virt=35418 notrack=534064 | touchRes=158332(eff=153214,ineff=5118) resetRes=51107(ineff=48870,eff=2237) | bc++=53988 bc--=155451 inv=235919
[DSB @ 1800000 calls] bc=0 isBypassOn=true| real=1200882 virt=37261 notrack=561856 | touchRes=168061(eff=162765,ineff=5296) resetRes=54212(ineff=51857,eff=2355) | bc++=57153 bc--=165120 inv=250308
[DSB @ 1900000 calls] bc=0 isBypassOn=true| real=1271765 virt=39138 notrack=589096 | touchRes=177805(eff=172303,ineff=5502) resetRes=57466(ineff=55007,eff=2459) | bc++=60509 bc--=174762 inv=265014
[DSB @ 2000000 calls] bc=0 isBypassOn=true| real=1341862 virt=40942 notrack=617195 | touchRes=187146(eff=181452,ineff=5694) resetRes=60625(ineff=58063,eff=2562) | bc++=63757 bc--=184014 inv=279683
[DSB @ 2100000 calls] bc=6 isBypassOn=true| real=1406432 virt=43172 notrack=650395 | touchRes=196750(eff=190811,ineff=5939) resetRes=63724(ineff=61019,eff=2705) | bc++=66958 bc--=193516 inv=294211
[DSB @ 2200000 calls] bc=0 isBypassOn=true| real=1470744 virt=45317 notrack=683938 | touchRes=205847(eff=199635,ineff=6212) resetRes=66527(ineff=63662,eff=2865) | bc++=69874 bc--=202500 inv=307368
[DSB @ 2300000 calls] bc=0 isBypassOn=true| real=1532248 virt=47773 notrack=719978 | touchRes=214722(eff=208285,ineff=6437) resetRes=69436(ineff=66405,eff=3031) | bc++=72842 bc--=211316 inv=322012
[DSB @ 2400000 calls] bc=0 isBypassOn=true| real=1602159 virt=49672 notrack=748168 | touchRes=224728(eff=218086,ineff=6642) resetRes=72646(ineff=69502,eff=3144) | bc++=76144 bc--=221230 inv=336507
[DSB @ 2500000 calls] bc=0 isBypassOn=true| real=1668166 virt=51771 notrack=780062 | touchRes=234095(eff=227242,ineff=6853) resetRes=75758(ineff=72468,eff=3290) | bc++=79321 bc--=230532 inv=351179
[DSB @ 2600000 calls] bc=2 isBypassOn=true| real=1733584 virt=53936 notrack=812479 | touchRes=244286(eff=237191,ineff=7095) resetRes=78751(ineff=75317,eff=3434) | bc++=82412 bc--=240625 inv=365877
[DSB @ 2700000 calls] bc=0 isBypassOn=true| real=1803278 virt=55859 notrack=840862 | touchRes=253885(eff=246566,ineff=7319) resetRes=81971(ineff=78391,eff=3580) | bc++=85710 bc--=250146 inv=380021
[DSB @ 2800000 calls] bc=1 isBypassOn=true| real=1876184 virt=57637 notrack=866178 | touchRes=263276(eff=255762,ineff=7514) resetRes=85224(ineff=81532,eff=3692) | bc++=89046 bc--=259454 inv=394249
[DSB @ 2900000 calls] bc=0 isBypassOn=true| real=1940707 virt=59807 notrack=899485 | touchRes=272443(eff=264695,ineff=7748) resetRes=88233(ineff=84375,eff=3858) | bc++=92123 bc--=268553 inv=408281
[DSB @ 3000000 calls] bc=0 isBypassOn=true| real=2010436 virt=61758 notrack=927805 | touchRes=282235(eff=274276,ineff=7959) resetRes=91412(ineff=87433,eff=3979) | bc++=95392 bc--=278255 inv=422943
[DSB @ 3100000 calls] bc=0 isBypassOn=true| real=2081797 virt=63545 notrack=954657 | touchRes=291839(eff=283689,ineff=8150) resetRes=94774(ineff=90659,eff=4115) | bc++=98809 bc--=287804 inv=437389
[DSB @ 3200000 calls] bc=4 isBypassOn=true| real=2152110 virt=65435 notrack=982454 | touchRes=301652(eff=293288,ineff=8364) resetRes=98031(ineff=93799,eff=4232) | bc++=102163 bc--=297520 inv=451989
[DSB @ 3300000 calls] bc=0 isBypassOn=true| real=2219975 virt=67433 notrack=1012591 | touchRes=311598(eff=303000,ineff=8598) resetRes=101326(ineff=96953,eff=4373) | bc++=105551 bc--=307373 inv=466903
[DSB @ 3400000 calls] bc=1 isBypassOn=true| real=2291925 virt=69155 notrack=1038919 | touchRes=321284(eff=312495,ineff=8789) resetRes=104629(ineff=100153,eff=4476) | bc++=108942 bc--=316971 inv=481231
[DSB @ 3500000 calls] bc=3 isBypassOn=true| real=2360432 virt=71156 notrack=1068411 | touchRes=330843(eff=321816,ineff=9027) resetRes=107785(ineff=103209,eff=4576) | bc++=112236 bc--=326392 inv=495804
[DSB @ 3600000 calls] bc=1 isBypassOn=true| real=2423699 virt=73402 notrack=1102898 | touchRes=340056(eff=330789,ineff=9267) resetRes=110723(ineff=105993,eff=4730) | bc++=115260 bc--=335519 inv=509905
[DSB @ 3700000 calls] bc=0 isBypassOn=true| real=2489821 virt=75532 notrack=1134646 | touchRes=349712(eff=340240,ineff=9472) resetRes=113654(ineff=108786,eff=4868) | bc++=118258 bc--=345108 inv=523965
[DSB @ 3800000 calls] bc=0 isBypassOn=true| real=2560896 virt=77371 notrack=1161732 | touchRes=359464(eff=349791,ineff=9673) resetRes=116990(ineff=112002,eff=4988) | bc++=121675 bc--=354779 inv=538669
[DSB @ 3900000 calls] bc=2 isBypassOn=true| real=2631379 virt=79209 notrack=1189411 | touchRes=369335(eff=359447,ineff=9888) resetRes=120355(ineff=115271,eff=5084) | bc++=125159 bc--=364531 inv=553273
[DSB @ 4000000 calls] bc=1 isBypassOn=true| real=2694677 virt=81498 notrack=1223824 | touchRes=378488(eff=368356,ineff=10132) resetRes=123347(ineff=118115,eff=5232) | bc++=128247 bc--=373588 inv=567138
[DSB @ 4100000 calls] bc=0 isBypassOn=true| real=2765801 virt=83316 notrack=1250882 | touchRes=388301(eff=377955,ineff=10346) resetRes=126689(ineff=121340,eff=5349) | bc++=131686 bc--=383304 inv=581388
[DSB @ 4200000 calls] bc=1 isBypassOn=true| real=2834265 virt=85189 notrack=1280545 | touchRes=397974(eff=387425,ineff=10549) resetRes=130112(ineff=124664,eff=5448) | bc++=135213 bc--=392873 inv=596607
[DSB @ 4300000 calls] bc=1 isBypassOn=true| real=2901355 virt=87221 notrack=1311423 | touchRes=407834(eff=397050,ineff=10784) resetRes=133196(ineff=127603,eff=5593) | bc++=138387 bc--=402643 inv=610963
Exiting @ tick 28048716872000 because a thread reached the max instruction count
