warn: The `get_runtime_isa` function is deprecated. Please migrate away from using this function.
warn: The se.py script is deprecated. It will be removed in future releases of  gem5.
warn: The `get_runtime_isa` function is deprecated. Please migrate away from using this function.
Global frequency set at 1000000000000 ticks per second
src/mem/dram_interface.cc:690: warn: DRAM device capacity (8192 Mbytes) does not match the address range assigned (16384 Mbytes)
src/base/statistics.hh:279: warn: One of the stats is a legacy stat. Legacy stat is a stat that does not belong to any statistics::Group. Legacy stat is deprecated.
src/base/remote_gdb.cc:418: warn: Sockets disabled, not accepting gdb connections
src/sim/process.cc:396: warn: Checkpoints for pipes, device drivers and sockets do not work.
gem5 Simulator System.  https://www.gem5.org
gem5 is copyrighted software; use the --copyright option for details.

gem5 version 23.0.0.1
gem5 compiled Apr  6 2026 01:50:35
gem5 started Apr  6 2026 06:25:37
gem5 executing on b49ce2a326be, pid 142911
command line: /opt/gem5/build/X86/gem5.opt --outdir=/workspace/results_l3/1MB/policy1Config1/bwaves /workspace/configs/run_spec_l3.py --rp-type=DSBRP --l3-size=1MB --l3-assoc=16 --cpu-type=DerivO3CPU --cmd=./speed_bwaves_base.gem5-x86 --options=bwaves_1 --mem-size=16GB --maxinst=250000000 --caches --l2cache --l1d_size=32kB --l1i_size=32kB --l1d_assoc=8 --l1i_assoc=8 --l2_size=256kB --l2_assoc=8 --checkpoint-restore=1 --checkpoint-dir=/workspace/checkpoints/bwaves/m5out --restore-with-cpu=AtomicSimpleCPU --standard-switch=1 --warmup-insts=50000000 --input=bwaves_1.in --dsb-enable-bypass=false --dsb-enable-aging=true --dsb-bypass-counter=6 --dsb-virtual-bypass-counter=4 --dsb-random-promotion=0 --dsb-minimum-bypass-counter=8

info: Standard input is not a terminal, disabling listeners.
Replacement policy: DSBRP
L1I size: 32kB, assoc: 8
L1D size: 32kB, assoc: 8
L2 size: 256kB, assoc: 8
L3 size: 1MB, L3 assoc: 16
Switch at instruction count:1
src/sim/simulate.cc:194: info: Entering event queue @ 26022662981500.  Starting simulation...
src/sim/simulate.cc:194: info: Entering event queue @ 26022662983500.  Starting simulation...
src/sim/power_state.cc:105: warn: PowerState: Already in the requested power state, request ignored
Switched CPUS @ tick 26022662983500
switching cpus
Switch at instruction count:50000000
src/sim/simulate.cc:194: info: Entering event queue @ 26022662984000.  Starting simulation...
[DSB @ 100000 calls] bc=8 isBypassOn=false| real=0 virt=6236 notrack=93763 | touchRes=4638(eff=0,ineff=4638) resetRes=0(ineff=0,eff=0) | bc++=4638 bc--=0 inv=1
[DSB @ 200000 calls] bc=8 isBypassOn=false| real=0 virt=12537 notrack=187462 | touchRes=9604(eff=0,ineff=9604) resetRes=0(ineff=0,eff=0) | bc++=9604 bc--=0 inv=1
[DSB @ 300000 calls] bc=8 isBypassOn=false| real=0 virt=18724 notrack=281275 | touchRes=14458(eff=0,ineff=14458) resetRes=0(ineff=0,eff=0) | bc++=14458 bc--=0 inv=1
[DSB @ 400000 calls] bc=8 isBypassOn=false| real=0 virt=24930 notrack=375069 | touchRes=19330(eff=0,ineff=19330) resetRes=0(ineff=0,eff=0) | bc++=19330 bc--=0 inv=1
[DSB @ 500000 calls] bc=8 isBypassOn=false| real=0 virt=31246 notrack=468753 | touchRes=24273(eff=0,ineff=24273) resetRes=0(ineff=0,eff=0) | bc++=24273 bc--=0 inv=1
[DSB @ 600000 calls] bc=8 isBypassOn=false| real=0 virt=37490 notrack=562509 | touchRes=29158(eff=0,ineff=29158) resetRes=0(ineff=0,eff=0) | bc++=29158 bc--=0 inv=1
[DSB @ 700000 calls] bc=8 isBypassOn=false| real=0 virt=43821 notrack=656178 | touchRes=34075(eff=0,ineff=34075) resetRes=0(ineff=0,eff=0) | bc++=34075 bc--=0 inv=1
[DSB @ 800000 calls] bc=8 isBypassOn=false| real=0 virt=50188 notrack=749811 | touchRes=39060(eff=0,ineff=39060) resetRes=0(ineff=0,eff=0) | bc++=39060 bc--=0 inv=1
[DSB @ 900000 calls] bc=8 isBypassOn=false| real=0 virt=56528 notrack=843471 | touchRes=43995(eff=0,ineff=43995) resetRes=0(ineff=0,eff=0) | bc++=43995 bc--=0 inv=1
[DSB @ 1000000 calls] bc=8 isBypassOn=false| real=0 virt=62669 notrack=937330 | touchRes=48762(eff=0,ineff=48762) resetRes=0(ineff=0,eff=0) | bc++=48762 bc--=0 inv=1
[DSB @ 1100000 calls] bc=8 isBypassOn=false| real=0 virt=68811 notrack=1031188 | touchRes=53520(eff=0,ineff=53520) resetRes=0(ineff=0,eff=0) | bc++=53520 bc--=0 inv=1
[DSB @ 1200000 calls] bc=8 isBypassOn=false| real=0 virt=75030 notrack=1124969 | touchRes=58342(eff=0,ineff=58342) resetRes=0(ineff=0,eff=0) | bc++=58342 bc--=0 inv=1
[DSB @ 1300000 calls] bc=8 isBypassOn=false| real=0 virt=81240 notrack=1218759 | touchRes=63238(eff=0,ineff=63238) resetRes=0(ineff=0,eff=0) | bc++=63238 bc--=0 inv=1
[DSB @ 1400000 calls] bc=8 isBypassOn=false| real=0 virt=87503 notrack=1312496 | touchRes=68145(eff=0,ineff=68145) resetRes=0(ineff=0,eff=0) | bc++=68145 bc--=0 inv=1
[DSB @ 1500000 calls] bc=8 isBypassOn=false| real=0 virt=93725 notrack=1406274 | touchRes=72967(eff=0,ineff=72967) resetRes=0(ineff=0,eff=0) | bc++=72967 bc--=0 inv=1
[DSB @ 1600000 calls] bc=8 isBypassOn=false| real=0 virt=100073 notrack=1499926 | touchRes=77966(eff=0,ineff=77966) resetRes=0(ineff=0,eff=0) | bc++=77966 bc--=0 inv=1
src/sim/simulate.cc:194: info: Entering event queue @ 26278335725500.  Starting simulation...
Switching CPUS @ tick 26278335725500
Simulation ends instruction count:250000000
switching cpus
**** REAL SIMULATION ****
src/sim/simulate.cc:194: info: Entering event queue @ 26278335727500.  Starting simulation...
[DSB @ 1700000 calls] bc=8 isBypassOn=false| real=0 virt=106182 notrack=1593817 | touchRes=82747(eff=0,ineff=82747) resetRes=0(ineff=0,eff=0) | bc++=82747 bc--=0 inv=2
[DSB @ 1800000 calls] bc=8 isBypassOn=false| real=0 virt=112390 notrack=1687609 | touchRes=87576(eff=0,ineff=87576) resetRes=0(ineff=0,eff=0) | bc++=87576 bc--=0 inv=2
[DSB @ 1900000 calls] bc=8 isBypassOn=false| real=0 virt=118744 notrack=1781255 | touchRes=92514(eff=0,ineff=92514) resetRes=0(ineff=0,eff=0) | bc++=92514 bc--=0 inv=2
[DSB @ 2000000 calls] bc=8 isBypassOn=false| real=0 virt=125155 notrack=1874844 | touchRes=97462(eff=0,ineff=97462) resetRes=0(ineff=0,eff=0) | bc++=97462 bc--=0 inv=2
[DSB @ 2100000 calls] bc=8 isBypassOn=false| real=0 virt=131412 notrack=1968587 | touchRes=102360(eff=0,ineff=102360) resetRes=0(ineff=0,eff=0) | bc++=102360 bc--=0 inv=2
[DSB @ 2200000 calls] bc=8 isBypassOn=false| real=0 virt=137723 notrack=2062276 | touchRes=107211(eff=0,ineff=107211) resetRes=0(ineff=0,eff=0) | bc++=107211 bc--=0 inv=2
[DSB @ 2300000 calls] bc=8 isBypassOn=false| real=0 virt=143883 notrack=2156116 | touchRes=111995(eff=0,ineff=111995) resetRes=0(ineff=0,eff=0) | bc++=111995 bc--=0 inv=2
[DSB @ 2400000 calls] bc=8 isBypassOn=false| real=0 virt=150112 notrack=2249887 | touchRes=116807(eff=0,ineff=116807) resetRes=0(ineff=0,eff=0) | bc++=116807 bc--=0 inv=2
[DSB @ 2500000 calls] bc=8 isBypassOn=false| real=0 virt=156489 notrack=2343510 | touchRes=121710(eff=0,ineff=121710) resetRes=0(ineff=0,eff=0) | bc++=121710 bc--=0 inv=2
[DSB @ 2600000 calls] bc=8 isBypassOn=false| real=0 virt=162908 notrack=2437091 | touchRes=126570(eff=0,ineff=126570) resetRes=0(ineff=0,eff=0) | bc++=126570 bc--=0 inv=2
[DSB @ 2700000 calls] bc=8 isBypassOn=false| real=0 virt=169014 notrack=2530985 | touchRes=131330(eff=0,ineff=131330) resetRes=0(ineff=0,eff=0) | bc++=131330 bc--=0 inv=2
[DSB @ 2800000 calls] bc=8 isBypassOn=false| real=0 virt=175234 notrack=2624765 | touchRes=136178(eff=0,ineff=136178) resetRes=0(ineff=0,eff=0) | bc++=136178 bc--=0 inv=2
[DSB @ 2900000 calls] bc=8 isBypassOn=false| real=0 virt=181464 notrack=2718535 | touchRes=140984(eff=0,ineff=140984) resetRes=0(ineff=0,eff=0) | bc++=140984 bc--=0 inv=2
[DSB @ 3000000 calls] bc=8 isBypassOn=false| real=0 virt=187713 notrack=2812286 | touchRes=145842(eff=0,ineff=145842) resetRes=0(ineff=0,eff=0) | bc++=145842 bc--=0 inv=2
[DSB @ 3100000 calls] bc=8 isBypassOn=false| real=0 virt=193817 notrack=2906182 | touchRes=150604(eff=0,ineff=150604) resetRes=0(ineff=0,eff=0) | bc++=150604 bc--=0 inv=2
[DSB @ 3200000 calls] bc=8 isBypassOn=false| real=0 virt=199910 notrack=3000089 | touchRes=155354(eff=0,ineff=155354) resetRes=0(ineff=0,eff=0) | bc++=155354 bc--=0 inv=2
[DSB @ 3300000 calls] bc=8 isBypassOn=false| real=0 virt=206223 notrack=3093776 | touchRes=160224(eff=0,ineff=160224) resetRes=0(ineff=0,eff=0) | bc++=160224 bc--=0 inv=2
[DSB @ 3400000 calls] bc=8 isBypassOn=false| real=0 virt=212501 notrack=3187498 | touchRes=165089(eff=0,ineff=165089) resetRes=0(ineff=0,eff=0) | bc++=165089 bc--=0 inv=2
[DSB @ 3500000 calls] bc=8 isBypassOn=false| real=0 virt=218796 notrack=3281203 | touchRes=169905(eff=0,ineff=169905) resetRes=0(ineff=0,eff=0) | bc++=169905 bc--=0 inv=2
[DSB @ 3600000 calls] bc=8 isBypassOn=false| real=0 virt=224977 notrack=3375022 | touchRes=174683(eff=0,ineff=174683) resetRes=0(ineff=0,eff=0) | bc++=174683 bc--=0 inv=2
[DSB @ 3700000 calls] bc=8 isBypassOn=false| real=0 virt=231320 notrack=3468679 | touchRes=179586(eff=0,ineff=179586) resetRes=0(ineff=0,eff=0) | bc++=179586 bc--=0 inv=2
[DSB @ 3800000 calls] bc=8 isBypassOn=false| real=0 virt=237545 notrack=3562454 | touchRes=184450(eff=0,ineff=184450) resetRes=0(ineff=0,eff=0) | bc++=184450 bc--=0 inv=2
[DSB @ 3900000 calls] bc=8 isBypassOn=false| real=0 virt=243803 notrack=3656196 | touchRes=189245(eff=0,ineff=189245) resetRes=0(ineff=0,eff=0) | bc++=189245 bc--=0 inv=2
[DSB @ 4000000 calls] bc=8 isBypassOn=false| real=0 virt=249887 notrack=3750112 | touchRes=194029(eff=0,ineff=194029) resetRes=0(ineff=0,eff=0) | bc++=194029 bc--=0 inv=2
[DSB @ 4100000 calls] bc=8 isBypassOn=false| real=0 virt=256107 notrack=3843892 | touchRes=198846(eff=0,ineff=198846) resetRes=0(ineff=0,eff=0) | bc++=198846 bc--=0 inv=2
[DSB @ 4200000 calls] bc=8 isBypassOn=false| real=0 virt=262398 notrack=3937601 | touchRes=203703(eff=0,ineff=203703) resetRes=0(ineff=0,eff=0) | bc++=203703 bc--=0 inv=2
[DSB @ 4300000 calls] bc=8 isBypassOn=false| real=0 virt=268676 notrack=4031323 | touchRes=208590(eff=0,ineff=208590) resetRes=0(ineff=0,eff=0) | bc++=208590 bc--=0 inv=2
[DSB @ 4400000 calls] bc=8 isBypassOn=false| real=0 virt=274805 notrack=4125194 | touchRes=213356(eff=0,ineff=213356) resetRes=0(ineff=0,eff=0) | bc++=213356 bc--=0 inv=2
[DSB @ 4500000 calls] bc=8 isBypassOn=false| real=0 virt=281091 notrack=4218908 | touchRes=218191(eff=0,ineff=218191) resetRes=0(ineff=0,eff=0) | bc++=218191 bc--=0 inv=2
[DSB @ 4600000 calls] bc=8 isBypassOn=false| real=0 virt=287322 notrack=4312677 | touchRes=222986(eff=0,ineff=222986) resetRes=0(ineff=0,eff=0) | bc++=222986 bc--=0 inv=2
[DSB @ 4700000 calls] bc=8 isBypassOn=false| real=0 virt=293582 notrack=4406417 | touchRes=227810(eff=0,ineff=227810) resetRes=0(ineff=0,eff=0) | bc++=227810 bc--=0 inv=2
[DSB @ 4800000 calls] bc=8 isBypassOn=false| real=0 virt=299858 notrack=4500141 | touchRes=232600(eff=0,ineff=232600) resetRes=0(ineff=0,eff=0) | bc++=232600 bc--=0 inv=2
[DSB @ 4900000 calls] bc=8 isBypassOn=false| real=0 virt=306077 notrack=4593922 | touchRes=237385(eff=0,ineff=237385) resetRes=0(ineff=0,eff=0) | bc++=237385 bc--=0 inv=2
[DSB @ 5000000 calls] bc=8 isBypassOn=false| real=0 virt=312259 notrack=4687740 | touchRes=242224(eff=0,ineff=242224) resetRes=0(ineff=0,eff=0) | bc++=242224 bc--=0 inv=2
[DSB @ 5100000 calls] bc=8 isBypassOn=false| real=0 virt=318643 notrack=4781356 | touchRes=247103(eff=0,ineff=247103) resetRes=0(ineff=0,eff=0) | bc++=247103 bc--=0 inv=2
[DSB @ 5200000 calls] bc=8 isBypassOn=false| real=0 virt=325011 notrack=4874988 | touchRes=252000(eff=0,ineff=252000) resetRes=0(ineff=0,eff=0) | bc++=252000 bc--=0 inv=2
[DSB @ 5300000 calls] bc=8 isBypassOn=false| real=0 virt=331231 notrack=4968768 | touchRes=256838(eff=0,ineff=256838) resetRes=0(ineff=0,eff=0) | bc++=256838 bc--=0 inv=2
[DSB @ 5400000 calls] bc=8 isBypassOn=false| real=0 virt=337443 notrack=5062556 | touchRes=261610(eff=0,ineff=261610) resetRes=0(ineff=0,eff=0) | bc++=261610 bc--=0 inv=2
[DSB @ 5500000 calls] bc=8 isBypassOn=false| real=0 virt=343613 notrack=5156386 | touchRes=266439(eff=0,ineff=266439) resetRes=0(ineff=0,eff=0) | bc++=266439 bc--=0 inv=2
[DSB @ 5600000 calls] bc=8 isBypassOn=false| real=0 virt=349876 notrack=5250123 | touchRes=271259(eff=0,ineff=271259) resetRes=0(ineff=0,eff=0) | bc++=271259 bc--=0 inv=2
[DSB @ 5700000 calls] bc=8 isBypassOn=false| real=0 virt=356148 notrack=5343851 | touchRes=276098(eff=0,ineff=276098) resetRes=0(ineff=0,eff=0) | bc++=276098 bc--=0 inv=2
[DSB @ 5800000 calls] bc=8 isBypassOn=false| real=0 virt=362474 notrack=5437525 | touchRes=280954(eff=0,ineff=280954) resetRes=0(ineff=0,eff=0) | bc++=280954 bc--=0 inv=2
[DSB @ 5900000 calls] bc=8 isBypassOn=false| real=0 virt=368762 notrack=5531237 | touchRes=285824(eff=0,ineff=285824) resetRes=0(ineff=0,eff=0) | bc++=285824 bc--=0 inv=2
[DSB @ 6000000 calls] bc=8 isBypassOn=false| real=0 virt=375060 notrack=5624939 | touchRes=290729(eff=0,ineff=290729) resetRes=0(ineff=0,eff=0) | bc++=290729 bc--=0 inv=2
[DSB @ 6100000 calls] bc=8 isBypassOn=false| real=0 virt=381221 notrack=5718778 | touchRes=295501(eff=0,ineff=295501) resetRes=0(ineff=0,eff=0) | bc++=295501 bc--=0 inv=2
[DSB @ 6200000 calls] bc=8 isBypassOn=false| real=0 virt=387533 notrack=5812466 | touchRes=300355(eff=0,ineff=300355) resetRes=0(ineff=0,eff=0) | bc++=300355 bc--=0 inv=2
[DSB @ 6300000 calls] bc=8 isBypassOn=false| real=0 virt=393658 notrack=5906341 | touchRes=305115(eff=0,ineff=305115) resetRes=0(ineff=0,eff=0) | bc++=305115 bc--=0 inv=2
[DSB @ 6400000 calls] bc=8 isBypassOn=false| real=0 virt=399834 notrack=6000165 | touchRes=309952(eff=0,ineff=309952) resetRes=0(ineff=0,eff=0) | bc++=309952 bc--=0 inv=2
[DSB @ 6500000 calls] bc=8 isBypassOn=false| real=0 virt=406021 notrack=6093978 | touchRes=314702(eff=0,ineff=314702) resetRes=0(ineff=0,eff=0) | bc++=314702 bc--=0 inv=2
[DSB @ 6600000 calls] bc=8 isBypassOn=false| real=0 virt=412354 notrack=6187645 | touchRes=319578(eff=0,ineff=319578) resetRes=0(ineff=0,eff=0) | bc++=319578 bc--=0 inv=2
[DSB @ 6700000 calls] bc=8 isBypassOn=false| real=0 virt=418577 notrack=6281422 | touchRes=324406(eff=0,ineff=324406) resetRes=0(ineff=0,eff=0) | bc++=324406 bc--=0 inv=2
[DSB @ 6800000 calls] bc=8 isBypassOn=false| real=0 virt=424693 notrack=6375306 | touchRes=329169(eff=0,ineff=329169) resetRes=0(ineff=0,eff=0) | bc++=329169 bc--=0 inv=2
[DSB @ 6900000 calls] bc=8 isBypassOn=false| real=0 virt=430922 notrack=6469077 | touchRes=333910(eff=0,ineff=333910) resetRes=0(ineff=0,eff=0) | bc++=333910 bc--=0 inv=2
[DSB @ 7000000 calls] bc=8 isBypassOn=false| real=0 virt=437264 notrack=6562735 | touchRes=338782(eff=0,ineff=338782) resetRes=0(ineff=0,eff=0) | bc++=338782 bc--=0 inv=2
[DSB @ 7100000 calls] bc=8 isBypassOn=false| real=0 virt=443500 notrack=6656499 | touchRes=343562(eff=0,ineff=343562) resetRes=0(ineff=0,eff=0) | bc++=343562 bc--=0 inv=2
[DSB @ 7200000 calls] bc=8 isBypassOn=false| real=0 virt=449698 notrack=6750301 | touchRes=348423(eff=0,ineff=348423) resetRes=0(ineff=0,eff=0) | bc++=348423 bc--=0 inv=2
[DSB @ 7300000 calls] bc=8 isBypassOn=false| real=0 virt=455905 notrack=6844094 | touchRes=353198(eff=0,ineff=353198) resetRes=0(ineff=0,eff=0) | bc++=353198 bc--=0 inv=2
[DSB @ 7400000 calls] bc=8 isBypassOn=false| real=0 virt=462085 notrack=6937914 | touchRes=357917(eff=0,ineff=357917) resetRes=0(ineff=0,eff=0) | bc++=357917 bc--=0 inv=2
[DSB @ 7500000 calls] bc=8 isBypassOn=false| real=0 virt=468469 notrack=7031530 | touchRes=362833(eff=0,ineff=362833) resetRes=0(ineff=0,eff=0) | bc++=362833 bc--=0 inv=2
[DSB @ 7600000 calls] bc=8 isBypassOn=false| real=0 virt=474636 notrack=7125363 | touchRes=367627(eff=0,ineff=367627) resetRes=0(ineff=0,eff=0) | bc++=367627 bc--=0 inv=2
[DSB @ 7700000 calls] bc=8 isBypassOn=false| real=0 virt=480921 notrack=7219078 | touchRes=372435(eff=0,ineff=372435) resetRes=0(ineff=0,eff=0) | bc++=372435 bc--=0 inv=2
[DSB @ 7800000 calls] bc=8 isBypassOn=false| real=0 virt=487080 notrack=7312919 | touchRes=377220(eff=0,ineff=377220) resetRes=0(ineff=0,eff=0) | bc++=377220 bc--=0 inv=2
[DSB @ 7900000 calls] bc=8 isBypassOn=false| real=0 virt=493177 notrack=7406822 | touchRes=381957(eff=0,ineff=381957) resetRes=0(ineff=0,eff=0) | bc++=381957 bc--=0 inv=2
[DSB @ 8000000 calls] bc=8 isBypassOn=false| real=0 virt=499432 notrack=7500567 | touchRes=386776(eff=0,ineff=386776) resetRes=0(ineff=0,eff=0) | bc++=386776 bc--=0 inv=2
[DSB @ 8100000 calls] bc=8 isBypassOn=false| real=0 virt=505721 notrack=7594278 | touchRes=391652(eff=0,ineff=391652) resetRes=0(ineff=0,eff=0) | bc++=391652 bc--=0 inv=2
[DSB @ 8200000 calls] bc=8 isBypassOn=false| real=0 virt=511828 notrack=7688171 | touchRes=396416(eff=0,ineff=396416) resetRes=0(ineff=0,eff=0) | bc++=396416 bc--=0 inv=2
[DSB @ 8300000 calls] bc=8 isBypassOn=false| real=0 virt=518085 notrack=7781914 | touchRes=401284(eff=0,ineff=401284) resetRes=0(ineff=0,eff=0) | bc++=401284 bc--=0 inv=2
[DSB @ 8400000 calls] bc=8 isBypassOn=false| real=0 virt=524203 notrack=7875796 | touchRes=406055(eff=0,ineff=406055) resetRes=0(ineff=0,eff=0) | bc++=406055 bc--=0 inv=2
[DSB @ 8500000 calls] bc=8 isBypassOn=false| real=0 virt=530381 notrack=7969618 | touchRes=410894(eff=0,ineff=410894) resetRes=0(ineff=0,eff=0) | bc++=410894 bc--=0 inv=2
[DSB @ 8600000 calls] bc=8 isBypassOn=false| real=0 virt=536642 notrack=8063357 | touchRes=415652(eff=0,ineff=415652) resetRes=0(ineff=0,eff=0) | bc++=415652 bc--=0 inv=2
[DSB @ 8700000 calls] bc=8 isBypassOn=false| real=0 virt=542856 notrack=8157143 | touchRes=420490(eff=0,ineff=420490) resetRes=0(ineff=0,eff=0) | bc++=420490 bc--=0 inv=2
[DSB @ 8800000 calls] bc=8 isBypassOn=false| real=0 virt=549010 notrack=8250989 | touchRes=425327(eff=0,ineff=425327) resetRes=0(ineff=0,eff=0) | bc++=425327 bc--=0 inv=3
[DSB @ 8900000 calls] bc=8 isBypassOn=false| real=0 virt=555351 notrack=8344648 | touchRes=430298(eff=0,ineff=430298) resetRes=0(ineff=0,eff=0) | bc++=430298 bc--=0 inv=3
[DSB @ 9000000 calls] bc=8 isBypassOn=false| real=0 virt=561569 notrack=8438430 | touchRes=435155(eff=0,ineff=435155) resetRes=0(ineff=0,eff=0) | bc++=435155 bc--=0 inv=3
[DSB @ 9100000 calls] bc=8 isBypassOn=false| real=0 virt=567765 notrack=8532234 | touchRes=440085(eff=0,ineff=440085) resetRes=0(ineff=0,eff=0) | bc++=440085 bc--=0 inv=3
[DSB @ 9200000 calls] bc=8 isBypassOn=false| real=0 virt=574209 notrack=8625790 | touchRes=445060(eff=0,ineff=445060) resetRes=0(ineff=0,eff=0) | bc++=445060 bc--=0 inv=5
[DSB @ 9300000 calls] bc=8 isBypassOn=false| real=0 virt=580391 notrack=8719608 | touchRes=449939(eff=0,ineff=449939) resetRes=0(ineff=0,eff=0) | bc++=449939 bc--=0 inv=6
[DSB @ 9400000 calls] bc=8 isBypassOn=false| real=0 virt=586463 notrack=8813536 | touchRes=454740(eff=0,ineff=454740) resetRes=0(ineff=0,eff=0) | bc++=454740 bc--=0 inv=8
[DSB @ 9500000 calls] bc=8 isBypassOn=false| real=0 virt=592795 notrack=8907204 | touchRes=459647(eff=0,ineff=459647) resetRes=0(ineff=0,eff=0) | bc++=459647 bc--=0 inv=9
[DSB @ 9600000 calls] bc=8 isBypassOn=false| real=0 virt=599063 notrack=9000936 | touchRes=464553(eff=0,ineff=464553) resetRes=0(ineff=0,eff=0) | bc++=464553 bc--=0 inv=9
[DSB @ 9700000 calls] bc=8 isBypassOn=false| real=0 virt=605324 notrack=9094675 | touchRes=469429(eff=0,ineff=469429) resetRes=0(ineff=0,eff=0) | bc++=469429 bc--=0 inv=10
[DSB @ 9800000 calls] bc=8 isBypassOn=false| real=0 virt=611655 notrack=9188344 | touchRes=474376(eff=0,ineff=474376) resetRes=0(ineff=0,eff=0) | bc++=474376 bc--=0 inv=10
Exiting @ tick 26658420315500 because a thread reached the max instruction count
