warn: The `get_runtime_isa` function is deprecated. Please migrate away from using this function.
warn: The se.py script is deprecated. It will be removed in future releases of  gem5.
warn: The `get_runtime_isa` function is deprecated. Please migrate away from using this function.
Global frequency set at 1000000000000 ticks per second
src/base/statistics.hh:279: warn: One of the stats is a legacy stat. Legacy stat is a stat that does not belong to any statistics::Group. Legacy stat is deprecated.
src/base/remote_gdb.cc:418: warn: Sockets disabled, not accepting gdb connections
src/sim/process.cc:396: warn: Checkpoints for pipes, device drivers and sockets do not work.
gem5 Simulator System.  https://www.gem5.org
gem5 is copyrighted software; use the --copyright option for details.

gem5 version 23.0.0.1
gem5 compiled Apr  6 2026 01:50:35
gem5 started Apr  6 2026 13:56:41
gem5 executing on b49ce2a326be, pid 222196
command line: /opt/gem5/build/X86/gem5.opt --outdir=/workspace/results_l3/2MB/policy1Config1/wrf /workspace/configs/run_spec_l3.py --rp-type=DSBRP --l3-size=2MB --l3-assoc=16 --cpu-type=DerivO3CPU --cmd=./wrf_s_base.gem5-x86 --options= --mem-size=8GB --maxinst=250000000 --caches --l2cache --l1d_size=32kB --l1i_size=32kB --l1d_assoc=8 --l1i_assoc=8 --l2_size=256kB --l2_assoc=8 --checkpoint-restore=1 --checkpoint-dir=/workspace/checkpoints/wrf/m5out --restore-with-cpu=AtomicSimpleCPU --standard-switch=1 --warmup-insts=50000000 --dsb-enable-bypass=false --dsb-enable-aging=true --dsb-bypass-counter=6 --dsb-virtual-bypass-counter=4 --dsb-random-promotion=0 --dsb-minimum-bypass-counter=8

info: Standard input is not a terminal, disabling listeners.
Replacement policy: DSBRP
L1I size: 32kB, assoc: 8
L1D size: 32kB, assoc: 8
L2 size: 256kB, assoc: 8
L3 size: 2MB, L3 assoc: 16
Switch at instruction count:1
src/sim/simulate.cc:194: info: Entering event queue @ 27778733914000.  Starting simulation...
src/sim/simulate.cc:194: info: Entering event queue @ 27778733915500.  Starting simulation...
src/sim/power_state.cc:105: warn: PowerState: Already in the requested power state, request ignored
Switched CPUS @ tick 27778733915500
switching cpus
Switch at instruction count:50000000
src/sim/simulate.cc:194: info: Entering event queue @ 27778733916000.  Starting simulation...
[DSB @ 100000 calls] bc=8 isBypassOn=false| real=0 virt=6236 notrack=93763 | touchRes=5092(eff=0,ineff=5092) resetRes=288(ineff=0,eff=288) | bc++=5092 bc--=288 inv=0
[DSB @ 200000 calls] bc=8 isBypassOn=false| real=0 virt=12537 notrack=187462 | touchRes=10654(eff=0,ineff=10654) resetRes=312(ineff=0,eff=312) | bc++=10654 bc--=312 inv=4
[DSB @ 300000 calls] bc=8 isBypassOn=false| real=0 virt=18724 notrack=281275 | touchRes=16153(eff=0,ineff=16153) resetRes=389(ineff=0,eff=389) | bc++=16153 bc--=389 inv=9
[DSB @ 400000 calls] bc=8 isBypassOn=false| real=0 virt=24930 notrack=375069 | touchRes=21714(eff=0,ineff=21714) resetRes=502(ineff=0,eff=502) | bc++=21714 bc--=502 inv=22
[DSB @ 500000 calls] bc=8 isBypassOn=false| real=0 virt=31246 notrack=468753 | touchRes=27450(eff=0,ineff=27450) resetRes=643(ineff=0,eff=643) | bc++=27450 bc--=643 inv=99
src/sim/simulate.cc:194: info: Entering event queue @ 27937101336500.  Starting simulation...
Switching CPUS @ tick 27937101336500
Simulation ends instruction count:250000000
switching cpus
**** REAL SIMULATION ****
src/sim/simulate.cc:194: info: Entering event queue @ 27937101537750.  Starting simulation...
[DSB @ 600000 calls] bc=8 isBypassOn=false| real=0 virt=37472 notrack=562527 | touchRes=33069(eff=0,ineff=33069) resetRes=807(ineff=0,eff=807) | bc++=33069 bc--=807 inv=178
[DSB @ 700000 calls] bc=8 isBypassOn=false| real=0 virt=43616 notrack=656383 | touchRes=38414(eff=0,ineff=38414) resetRes=1042(ineff=0,eff=1042) | bc++=38414 bc--=1042 inv=298
[DSB @ 800000 calls] bc=8 isBypassOn=false| real=0 virt=49883 notrack=750116 | touchRes=43749(eff=0,ineff=43749) resetRes=1302(ineff=0,eff=1302) | bc++=43749 bc--=1302 inv=435
[DSB @ 900000 calls] bc=8 isBypassOn=false| real=0 virt=56088 notrack=843911 | touchRes=49299(eff=0,ineff=49299) resetRes=1441(ineff=0,eff=1441) | bc++=49299 bc--=1441 inv=522
[DSB @ 1000000 calls] bc=8 isBypassOn=false| real=0 virt=62344 notrack=937655 | touchRes=54941(eff=0,ineff=54941) resetRes=1626(ineff=0,eff=1626) | bc++=54941 bc--=1626 inv=652
[DSB @ 1100000 calls] bc=8 isBypassOn=false| real=0 virt=68628 notrack=1031371 | touchRes=60140(eff=0,ineff=60140) resetRes=1846(ineff=0,eff=1846) | bc++=60140 bc--=1846 inv=812
[DSB @ 1200000 calls] bc=8 isBypassOn=false| real=0 virt=74855 notrack=1125144 | touchRes=65594(eff=0,ineff=65594) resetRes=1954(ineff=0,eff=1954) | bc++=65594 bc--=1954 inv=846
[DSB @ 1300000 calls] bc=8 isBypassOn=false| real=0 virt=81059 notrack=1218940 | touchRes=71033(eff=0,ineff=71033) resetRes=1966(ineff=0,eff=1966) | bc++=71033 bc--=1966 inv=850
[DSB @ 1400000 calls] bc=8 isBypassOn=false| real=0 virt=87275 notrack=1312724 | touchRes=76556(eff=0,ineff=76556) resetRes=1970(ineff=0,eff=1970) | bc++=76556 bc--=1970 inv=850
[DSB @ 1500000 calls] bc=8 isBypassOn=false| real=0 virt=93579 notrack=1406420 | touchRes=82110(eff=0,ineff=82110) resetRes=2007(ineff=0,eff=2007) | bc++=82110 bc--=2007 inv=871
[DSB @ 1600000 calls] bc=8 isBypassOn=false| real=0 virt=99805 notrack=1500194 | touchRes=87752(eff=0,ineff=87752) resetRes=2011(ineff=0,eff=2011) | bc++=87752 bc--=2011 inv=887
[DSB @ 1700000 calls] bc=8 isBypassOn=false| real=0 virt=106046 notrack=1593953 | touchRes=93565(eff=0,ineff=93565) resetRes=2046(ineff=0,eff=2046) | bc++=93565 bc--=2046 inv=921
[DSB @ 1800000 calls] bc=8 isBypassOn=false| real=0 virt=112271 notrack=1687728 | touchRes=99122(eff=0,ineff=99122) resetRes=2345(ineff=0,eff=2345) | bc++=99122 bc--=2345 inv=1108
[DSB @ 1900000 calls] bc=8 isBypassOn=false| real=0 virt=118673 notrack=1781326 | touchRes=104593(eff=0,ineff=104593) resetRes=2446(ineff=0,eff=2446) | bc++=104593 bc--=2446 inv=1227
Exiting @ tick 28096899253000 because a thread reached the max instruction count
