warn: The `get_runtime_isa` function is deprecated. Please migrate away from using this function.
warn: The se.py script is deprecated. It will be removed in future releases of  gem5.
warn: The `get_runtime_isa` function is deprecated. Please migrate away from using this function.
Global frequency set at 1000000000000 ticks per second
src/base/statistics.hh:279: warn: One of the stats is a legacy stat. Legacy stat is a stat that does not belong to any statistics::Group. Legacy stat is deprecated.
src/base/remote_gdb.cc:418: warn: Sockets disabled, not accepting gdb connections
src/sim/process.cc:396: warn: Checkpoints for pipes, device drivers and sockets do not work.
gem5 Simulator System.  https://www.gem5.org
gem5 is copyrighted software; use the --copyright option for details.

gem5 version 23.0.0.1
gem5 compiled Apr  6 2026 01:50:35
gem5 started Apr  6 2026 06:47:38
gem5 executing on b49ce2a326be, pid 146478
command line: /opt/gem5/build/X86/gem5.opt --outdir=/workspace/results_l3/1MB/policy1Config1/cam4 /workspace/configs/run_spec_l3.py --rp-type=DSBRP --l3-size=1MB --l3-assoc=16 --cpu-type=DerivO3CPU --cmd=./cam4_s_base.gem5-x86 --options= --mem-size=8GB --maxinst=250000000 --caches --l2cache --l1d_size=32kB --l1i_size=32kB --l1d_assoc=8 --l1i_assoc=8 --l2_size=256kB --l2_assoc=8 --checkpoint-restore=1 --checkpoint-dir=/workspace/checkpoints/cam4/m5out --restore-with-cpu=AtomicSimpleCPU --standard-switch=1 --warmup-insts=50000000 --dsb-enable-bypass=false --dsb-enable-aging=true --dsb-bypass-counter=6 --dsb-virtual-bypass-counter=4 --dsb-random-promotion=0 --dsb-minimum-bypass-counter=8

info: Standard input is not a terminal, disabling listeners.
Replacement policy: DSBRP
L1I size: 32kB, assoc: 8
L1D size: 32kB, assoc: 8
L2 size: 256kB, assoc: 8
L3 size: 1MB, L3 assoc: 16
Switch at instruction count:1
src/sim/simulate.cc:194: info: Entering event queue @ 25337984014000.  Starting simulation...
src/sim/power_state.cc:105: warn: PowerState: Already in the requested power state, request ignored
Switched CPUS @ tick 25337984015500
switching cpus
Switch at instruction count:50000000
src/sim/simulate.cc:194: info: Entering event queue @ 25337984015500.  Starting simulation...
[DSB @ 100000 calls] bc=8 isBypassOn=false| real=0 virt=6236 notrack=93763 | touchRes=4727(eff=0,ineff=4727) resetRes=57(ineff=0,eff=57) | bc++=4727 bc--=57 inv=58
[DSB @ 200000 calls] bc=8 isBypassOn=false| real=0 virt=12537 notrack=187462 | touchRes=9617(eff=0,ineff=9617) resetRes=57(ineff=0,eff=57) | bc++=9617 bc--=57 inv=59
[DSB @ 300000 calls] bc=8 isBypassOn=false| real=0 virt=18724 notrack=281275 | touchRes=14378(eff=0,ineff=14378) resetRes=57(ineff=0,eff=57) | bc++=14378 bc--=57 inv=59
[DSB @ 400000 calls] bc=8 isBypassOn=false| real=0 virt=24930 notrack=375069 | touchRes=19202(eff=0,ineff=19202) resetRes=57(ineff=0,eff=57) | bc++=19202 bc--=57 inv=60
[DSB @ 500000 calls] bc=8 isBypassOn=false| real=0 virt=31246 notrack=468753 | touchRes=24146(eff=0,ineff=24146) resetRes=57(ineff=0,eff=57) | bc++=24146 bc--=57 inv=60
src/sim/simulate.cc:194: info: Entering event queue @ 25488481919000.  Starting simulation...
Switching CPUS @ tick 25488481919000
Simulation ends instruction count:250000000
switching cpus
**** REAL SIMULATION ****
src/sim/simulate.cc:194: info: Entering event queue @ 25488482062750.  Starting simulation...
[DSB @ 600000 calls] bc=8 isBypassOn=false| real=0 virt=37554 notrack=562445 | touchRes=29357(eff=0,ineff=29357) resetRes=242(ineff=0,eff=242) | bc++=29357 bc--=242 inv=161
[DSB @ 700000 calls] bc=8 isBypassOn=false| real=0 virt=43792 notrack=656207 | touchRes=34044(eff=0,ineff=34044) resetRes=258(ineff=0,eff=258) | bc++=34044 bc--=258 inv=198
[DSB @ 800000 calls] bc=8 isBypassOn=false| real=0 virt=50164 notrack=749835 | touchRes=39006(eff=0,ineff=39006) resetRes=258(ineff=0,eff=258) | bc++=39006 bc--=258 inv=198
[DSB @ 900000 calls] bc=8 isBypassOn=false| real=0 virt=56451 notrack=843548 | touchRes=43857(eff=0,ineff=43857) resetRes=258(ineff=0,eff=258) | bc++=43857 bc--=258 inv=198
[DSB @ 1000000 calls] bc=8 isBypassOn=false| real=0 virt=62764 notrack=937235 | touchRes=48683(eff=0,ineff=48683) resetRes=258(ineff=0,eff=258) | bc++=48683 bc--=258 inv=200
[DSB @ 1100000 calls] bc=8 isBypassOn=false| real=0 virt=69105 notrack=1030894 | touchRes=53680(eff=0,ineff=53680) resetRes=417(ineff=0,eff=417) | bc++=53680 bc--=417 inv=251
[DSB @ 1200000 calls] bc=8 isBypassOn=false| real=0 virt=75305 notrack=1124694 | touchRes=58504(eff=0,ineff=58504) resetRes=475(ineff=0,eff=475) | bc++=58504 bc--=475 inv=317
[DSB @ 1300000 calls] bc=8 isBypassOn=false| real=0 virt=81528 notrack=1218471 | touchRes=63370(eff=0,ineff=63370) resetRes=475(ineff=0,eff=475) | bc++=63370 bc--=475 inv=317
[DSB @ 1400000 calls] bc=8 isBypassOn=false| real=0 virt=87937 notrack=1312062 | touchRes=68258(eff=0,ineff=68258) resetRes=475(ineff=0,eff=475) | bc++=68258 bc--=475 inv=317
[DSB @ 1500000 calls] bc=8 isBypassOn=false| real=0 virt=93957 notrack=1406042 | touchRes=73027(eff=0,ineff=73027) resetRes=475(ineff=0,eff=475) | bc++=73027 bc--=475 inv=317
[DSB @ 1600000 calls] bc=8 isBypassOn=false| real=0 virt=100304 notrack=1499695 | touchRes=77885(eff=0,ineff=77885) resetRes=475(ineff=0,eff=475) | bc++=77885 bc--=475 inv=319
Exiting @ tick 25666571067500 because a thread reached the max instruction count
