warn: The `get_runtime_isa` function is deprecated. Please migrate away from using this function.
warn: The se.py script is deprecated. It will be removed in future releases of  gem5.
warn: The `get_runtime_isa` function is deprecated. Please migrate away from using this function.
Global frequency set at 1000000000000 ticks per second
src/base/statistics.hh:279: warn: One of the stats is a legacy stat. Legacy stat is a stat that does not belong to any statistics::Group. Legacy stat is deprecated.
src/base/remote_gdb.cc:418: warn: Sockets disabled, not accepting gdb connections
src/sim/process.cc:396: warn: Checkpoints for pipes, device drivers and sockets do not work.
gem5 Simulator System.  https://www.gem5.org
gem5 is copyrighted software; use the --copyright option for details.

gem5 version 23.0.0.1
gem5 compiled Apr  6 2026 01:50:35
gem5 started Apr  7 2026 12:17:56
gem5 executing on b49ce2a326be, pid 102240
command line: /opt/gem5/build/X86/gem5.opt --outdir=/workspace/results_l3/4MB/policy1Config1/mcf /workspace/configs/run_spec_l3.py --rp-type=DSBRP --l3-size=4MB --l3-assoc=16 --cpu-type=DerivO3CPU --cmd=./mcf_s_base.gem5-x86 --options=inp.in --mem-size=8GB --maxinst=250000000 --caches --l2cache --l1d_size=32kB --l1i_size=32kB --l1d_assoc=8 --l1i_assoc=8 --l2_size=256kB --l2_assoc=8 --checkpoint-restore=1 --checkpoint-dir=/workspace/checkpoints/mcf/m5out --restore-with-cpu=AtomicSimpleCPU --standard-switch=1 --warmup-insts=50000000 --dsb-enable-bypass=false --dsb-enable-aging=true --dsb-bypass-counter=6 --dsb-virtual-bypass-counter=4 --dsb-random-promotion=0 --dsb-minimum-bypass-counter=8

info: Standard input is not a terminal, disabling listeners.
Replacement policy: DSBRP
L1I size: 32kB, assoc: 8
L1D size: 32kB, assoc: 8
L2 size: 256kB, assoc: 8
L3 size: 4MB, L3 assoc: 16
Switch at instruction count:1
src/sim/simulate.cc:194: info: Entering event queue @ 24065090964500.  Starting simulation...
src/sim/simulate.cc:194: info: Entering event queue @ 24065090965500.  Starting simulation...
src/sim/power_state.cc:105: warn: PowerState: Already in the requested power state, request ignored
Switched CPUS @ tick 24065090965500
switching cpus
Switch at instruction count:50000000
src/sim/simulate.cc:194: info: Entering event queue @ 24065090966000.  Starting simulation...
[DSB @ 100000 calls] bc=8 isBypassOn=false| real=0 virt=6236 notrack=93763 | touchRes=6038(eff=0,ineff=6038) resetRes=5(ineff=0,eff=5) | bc++=6038 bc--=5 inv=0
[DSB @ 200000 calls] bc=8 isBypassOn=false| real=0 virt=12537 notrack=187462 | touchRes=12207(eff=0,ineff=12207) resetRes=37(ineff=0,eff=37) | bc++=12207 bc--=37 inv=4
src/sim/simulate.cc:194: info: Entering event queue @ 24212152759500.  Starting simulation...
Switching CPUS @ tick 24212152759500
Simulation ends instruction count:250000000
switching cpus
**** REAL SIMULATION ****
src/sim/simulate.cc:194: info: Entering event queue @ 24212152853000.  Starting simulation...
[DSB @ 300000 calls] bc=8 isBypassOn=false| real=0 virt=18754 notrack=281245 | touchRes=18340(eff=0,ineff=18340) resetRes=58(ineff=0,eff=58) | bc++=18340 bc--=58 inv=11
[DSB @ 400000 calls] bc=8 isBypassOn=false| real=0 virt=24840 notrack=375159 | touchRes=24329(eff=0,ineff=24329) resetRes=90(ineff=0,eff=90) | bc++=24329 bc--=90 inv=31
[DSB @ 500000 calls] bc=8 isBypassOn=false| real=0 virt=31070 notrack=468929 | touchRes=30362(eff=0,ineff=30362) resetRes=122(ineff=0,eff=122) | bc++=30362 bc--=122 inv=65
[DSB @ 600000 calls] bc=8 isBypassOn=false| real=0 virt=37378 notrack=562621 | touchRes=36492(eff=0,ineff=36492) resetRes=153(ineff=0,eff=153) | bc++=36492 bc--=153 inv=115
[DSB @ 700000 calls] bc=8 isBypassOn=false| real=0 virt=43606 notrack=656393 | touchRes=42565(eff=0,ineff=42565) resetRes=184(ineff=0,eff=184) | bc++=42565 bc--=184 inv=161
[DSB @ 800000 calls] bc=8 isBypassOn=true| real=0 virt=49862 notrack=750137 | touchRes=48660(eff=0,ineff=48660) resetRes=215(ineff=0,eff=215) | bc++=48660 bc--=215 inv=222
[DSB @ 900000 calls] bc=8 isBypassOn=false| real=0 virt=56067 notrack=843932 | touchRes=54681(eff=0,ineff=54681) resetRes=249(ineff=0,eff=249) | bc++=54681 bc--=249 inv=285
[DSB @ 1000000 calls] bc=8 isBypassOn=false| real=0 virt=62230 notrack=937769 | touchRes=60654(eff=0,ineff=60654) resetRes=285(ineff=0,eff=285) | bc++=60654 bc--=285 inv=343
[DSB @ 1100000 calls] bc=8 isBypassOn=false| real=0 virt=68488 notrack=1031511 | touchRes=66777(eff=0,ineff=66777) resetRes=305(ineff=0,eff=305) | bc++=66777 bc--=305 inv=405
[DSB @ 1200000 calls] bc=8 isBypassOn=false| real=0 virt=74743 notrack=1125256 | touchRes=72842(eff=0,ineff=72842) resetRes=335(ineff=0,eff=335) | bc++=72842 bc--=335 inv=476
[DSB @ 1300000 calls] bc=8 isBypassOn=false| real=0 virt=80994 notrack=1219005 | touchRes=78905(eff=0,ineff=78905) resetRes=371(ineff=0,eff=371) | bc++=78905 bc--=371 inv=536
[DSB @ 1400000 calls] bc=8 isBypassOn=false| real=0 virt=87340 notrack=1312659 | touchRes=85013(eff=0,ineff=85013) resetRes=406(ineff=0,eff=406) | bc++=85013 bc--=406 inv=609
[DSB @ 1500000 calls] bc=8 isBypassOn=false| real=0 virt=93487 notrack=1406512 | touchRes=91036(eff=0,ineff=91036) resetRes=436(ineff=0,eff=436) | bc++=91036 bc--=436 inv=674
[DSB @ 1600000 calls] bc=8 isBypassOn=false| real=0 virt=99785 notrack=1500214 | touchRes=97181(eff=0,ineff=97181) resetRes=462(ineff=0,eff=462) | bc++=97181 bc--=462 inv=752
Exiting @ tick 24399670608000 because a thread reached the max instruction count
