warn: The `get_runtime_isa` function is deprecated. Please migrate away from using this function.
warn: The se.py script is deprecated. It will be removed in future releases of  gem5.
warn: The `get_runtime_isa` function is deprecated. Please migrate away from using this function.
Global frequency set at 1000000000000 ticks per second
src/base/statistics.hh:279: warn: One of the stats is a legacy stat. Legacy stat is a stat that does not belong to any statistics::Group. Legacy stat is deprecated.
src/base/remote_gdb.cc:418: warn: Sockets disabled, not accepting gdb connections
src/sim/process.cc:396: warn: Checkpoints for pipes, device drivers and sockets do not work.
gem5 Simulator System.  https://www.gem5.org
gem5 is copyrighted software; use the --copyright option for details.

gem5 version 23.0.0.1
gem5 compiled Apr  6 2026 01:50:35
gem5 started Apr  6 2026 12:06:43
gem5 executing on b49ce2a326be, pid 202346
command line: /opt/gem5/build/X86/gem5.opt --outdir=/workspace/results_l3/2MB/policy0Config3/gcc /workspace/configs/run_spec_l3.py --rp-type=DSBRP --l3-size=2MB --l3-assoc=16 --cpu-type=DerivO3CPU --cmd=./sgcc_base.gem5-x86 '--options=gcc-pp.c -O5 -fipa-pta -o gcc-pp.opts-O5_-fipa-pta.s' --mem-size=8GB --maxinst=250000000 --caches --l2cache --l1d_size=32kB --l1i_size=32kB --l1d_assoc=8 --l1i_assoc=8 --l2_size=256kB --l2_assoc=8 --checkpoint-restore=1 --checkpoint-dir=/workspace/checkpoints/gcc/m5out --restore-with-cpu=AtomicSimpleCPU --standard-switch=1 --warmup-insts=50000000 --dsb-enable-bypass=true --dsb-enable-aging=false --dsb-bypass-counter=3 --dsb-virtual-bypass-counter=3 --dsb-random-promotion=0 --dsb-minimum-bypass-counter=12

info: Standard input is not a terminal, disabling listeners.
Replacement policy: DSBRP
L1I size: 32kB, assoc: 8
L1D size: 32kB, assoc: 8
L2 size: 256kB, assoc: 8
L3 size: 2MB, L3 assoc: 16
Switch at instruction count:1
src/sim/simulate.cc:194: info: Entering event queue @ 27766339396500.  Starting simulation...
src/sim/simulate.cc:194: info: Entering event queue @ 27766339398500.  Starting simulation...
src/sim/power_state.cc:105: warn: PowerState: Already in the requested power state, request ignored
Switched CPUS @ tick 27766339398500
switching cpus
Switch at instruction count:50000000
src/sim/simulate.cc:194: info: Entering event queue @ 27766339399000.  Starting simulation...
[DSB @ 100000 calls] bc=12 isBypassOn=false| real=6294 virt=11638 notrack=82067 | touchRes=8120(eff=1641,ineff=6479) resetRes=2226(ineff=1162,eff=1064) | bc++=7641 bc--=2705 inv=4291
src/sim/simulate.cc:194: info: Entering event queue @ 27882552139500.  Starting simulation...
Switching CPUS @ tick 27882552139500
Simulation ends instruction count:250000000
switching cpus
**** REAL SIMULATION ****
src/sim/simulate.cc:194: info: Entering event queue @ 27882552508250.  Starting simulation...
[DSB @ 200000 calls] bc=12 isBypassOn=true| real=9338 virt=23736 notrack=166925 | touchRes=14664(eff=2467,ineff=12197) resetRes=4420(ineff=1800,eff=2620) | bc++=13997 bc--=5087 inv=9047
[DSB @ 300000 calls] bc=12 isBypassOn=true| real=16209 virt=35177 notrack=248613 | touchRes=20492(eff=3956,ineff=16536) resetRes=6873(ineff=2877,eff=3996) | bc++=19413 bc--=7952 inv=15432
[DSB @ 400000 calls] bc=2 isBypassOn=true| real=28051 virt=46025 notrack=325923 | touchRes=27227(eff=6703,ineff=20524) resetRes=9607(ineff=4266,eff=5341) | bc++=24790 bc--=12044 inv=22552
[DSB @ 500000 calls] bc=12 isBypassOn=true| real=29337 virt=58474 notrack=412188 | touchRes=33385(eff=7098,ineff=26287) resetRes=11677(ineff=4715,eff=6962) | bc++=31002 bc--=14060 inv=27524
[DSB @ 600000 calls] bc=12 isBypassOn=false| real=29507 virt=70877 notrack=499615 | touchRes=40005(eff=7163,ineff=32842) resetRes=13380(ineff=4741,eff=8639) | bc++=37583 bc--=15802 inv=31282
Exiting @ tick 28056765469500 because a thread reached the max instruction count
