warn: The `get_runtime_isa` function is deprecated. Please migrate away from using this function.
warn: The se.py script is deprecated. It will be removed in future releases of  gem5.
warn: The `get_runtime_isa` function is deprecated. Please migrate away from using this function.
Global frequency set at 1000000000000 ticks per second
src/base/statistics.hh:279: warn: One of the stats is a legacy stat. Legacy stat is a stat that does not belong to any statistics::Group. Legacy stat is deprecated.
src/base/remote_gdb.cc:418: warn: Sockets disabled, not accepting gdb connections
src/sim/process.cc:396: warn: Checkpoints for pipes, device drivers and sockets do not work.
gem5 Simulator System.  https://www.gem5.org
gem5 is copyrighted software; use the --copyright option for details.

gem5 version 23.0.0.1
gem5 compiled Apr  6 2026 01:50:35
gem5 started Apr  6 2026 10:16:45
gem5 executing on b49ce2a326be, pid 181364
command line: /opt/gem5/build/X86/gem5.opt --outdir=/workspace/results_l3/2MB/policy0Config1/wrf /workspace/configs/run_spec_l3.py --rp-type=DSBRP --l3-size=2MB --l3-assoc=16 --cpu-type=DerivO3CPU --cmd=./wrf_s_base.gem5-x86 --options= --mem-size=8GB --maxinst=250000000 --caches --l2cache --l1d_size=32kB --l1i_size=32kB --l1d_assoc=8 --l1i_assoc=8 --l2_size=256kB --l2_assoc=8 --checkpoint-restore=1 --checkpoint-dir=/workspace/checkpoints/wrf/m5out --restore-with-cpu=AtomicSimpleCPU --standard-switch=1 --warmup-insts=50000000 --dsb-enable-bypass=true --dsb-enable-aging=false --dsb-bypass-counter=6 --dsb-virtual-bypass-counter=4 --dsb-random-promotion=0 --dsb-minimum-bypass-counter=8

info: Standard input is not a terminal, disabling listeners.
Replacement policy: DSBRP
L1I size: 32kB, assoc: 8
L1D size: 32kB, assoc: 8
L2 size: 256kB, assoc: 8
L3 size: 2MB, L3 assoc: 16
Switch at instruction count:1
src/sim/simulate.cc:194: info: Entering event queue @ 27778733914000.  Starting simulation...
src/sim/simulate.cc:194: info: Entering event queue @ 27778733915500.  Starting simulation...
src/sim/power_state.cc:105: warn: PowerState: Already in the requested power state, request ignored
Switched CPUS @ tick 27778733915500
switching cpus
Switch at instruction count:50000000
src/sim/simulate.cc:194: info: Entering event queue @ 27778733916000.  Starting simulation...
[DSB @ 100000 calls] bc=0 isBypassOn=true| real=59457 virt=2475 notrack=38067 | touchRes=4648(eff=3309,ineff=1339) resetRes=297(ineff=209,eff=88) | bc++=1548 bc--=3397 inv=2091
[DSB @ 200000 calls] bc=0 isBypassOn=true| real=123966 virt=4733 notrack=71300 | touchRes=11980(eff=10537,ineff=1443) resetRes=1217(ineff=1014,eff=203) | bc++=2457 bc--=10740 inv=14708
[DSB @ 300000 calls] bc=1 isBypassOn=true| real=198764 virt=6283 notrack=94952 | touchRes=19528(eff=18043,ineff=1485) resetRes=1521(ineff=1237,eff=284) | bc++=2722 bc--=18327 inv=27217
[DSB @ 400000 calls] bc=8 isBypassOn=false| real=258885 virt=8752 notrack=132362 | touchRes=27061(eff=25487,ineff=1574) resetRes=2366(ineff=1969,eff=397) | bc++=3543 bc--=25884 inv=40615
[DSB @ 500000 calls] bc=6 isBypassOn=true| real=300552 virt=12402 notrack=187045 | touchRes=32098(eff=30516,ineff=1582) resetRes=2855(ineff=2352,eff=503) | bc++=3934 bc--=31019 inv=51910
[DSB @ 600000 calls] bc=0 isBypassOn=true| real=366670 virt=14538 notrack=218791 | touchRes=40011(eff=38314,ineff=1697) resetRes=3891(ineff=3334,eff=557) | bc++=5031 bc--=38871 inv=62942
[DSB @ 700000 calls] bc=1 isBypassOn=true| real=426232 virt=17075 notrack=256692 | touchRes=49265(eff=47260,ineff=2005) resetRes=6177(ineff=5474,eff=703) | bc++=7479 bc--=47963 inv=77138
src/sim/simulate.cc:194: info: Entering event queue @ 27938873770500.  Starting simulation...
Switching CPUS @ tick 27938873770500
Simulation ends instruction count:250000000
switching cpus
**** REAL SIMULATION ****
src/sim/simulate.cc:194: info: Entering event queue @ 27938874249750.  Starting simulation...
[DSB @ 800000 calls] bc=0 isBypassOn=true| real=495831 virt=18984 notrack=285184 | touchRes=56886(eff=54719,ineff=2167) resetRes=8706(ineff=7730,eff=976) | bc++=9897 bc--=55695 inv=85885
[DSB @ 900000 calls] bc=0 isBypassOn=true| real=563836 virt=21000 notrack=315163 | touchRes=67383(eff=64907,ineff=2476) resetRes=10134(ineff=8969,eff=1165) | bc++=11445 bc--=66072 inv=98817
[DSB @ 1000000 calls] bc=0 isBypassOn=true| real=640703 virt=22475 notrack=336821 | touchRes=73002(eff=70364,ineff=2638) resetRes=12226(ineff=10840,eff=1386) | bc++=13478 bc--=71750 inv=105991
[DSB @ 1100000 calls] bc=0 isBypassOn=true| real=700659 virt=24953 notrack=374387 | touchRes=81122(eff=78025,ineff=3097) resetRes=14665(ineff=13022,eff=1643) | bc++=16119 bc--=79668 inv=115669
[DSB @ 1200000 calls] bc=1 isBypassOn=true| real=792079 virt=25472 notrack=382448 | touchRes=85363(eff=82149,ineff=3214) resetRes=14771(ineff=13097,eff=1674) | bc++=16311 bc--=83823 inv=120241
[DSB @ 1300000 calls] bc=0 isBypassOn=true| real=861567 virt=27359 notrack=411073 | touchRes=92168(eff=88811,ineff=3357) resetRes=16119(ineff=14289,eff=1830) | bc++=17646 bc--=90641 inv=129112
[DSB @ 1400000 calls] bc=2 isBypassOn=true| real=944624 virt=28403 notrack=426972 | touchRes=99612(eff=96071,ineff=3541) resetRes=17054(ineff=15098,eff=1956) | bc++=18639 bc--=98027 inv=137789
[DSB @ 1500000 calls] bc=8 isBypassOn=false| real=994364 virt=31512 notrack=474123 | touchRes=106391(eff=102614,ineff=3777) resetRes=18488(ineff=16414,eff=2074) | bc++=20191 bc--=104688 inv=149115
[DSB @ 1600000 calls] bc=0 isBypassOn=true| real=1045000 virt=34581 notrack=520418 | touchRes=111139(eff=107190,ineff=3949) resetRes=19330(ineff=17099,eff=2231) | bc++=21048 bc--=109421 inv=160027
[DSB @ 1700000 calls] bc=0 isBypassOn=true| real=1116358 virt=36390 notrack=547251 | touchRes=116494(eff=112538,ineff=3956) resetRes=19774(ineff=17508,eff=2266) | bc++=21464 bc--=114804 inv=170080
[DSB @ 1800000 calls] bc=7 isBypassOn=true| real=1176747 virt=38818 notrack=584434 | touchRes=126941(eff=122796,ineff=4145) resetRes=21188(ineff=18748,eff=2440) | bc++=22893 bc--=125236 inv=183336
[DSB @ 1900000 calls] bc=0 isBypassOn=true| real=1230769 virt=41756 notrack=627474 | touchRes=133376(eff=128670,ineff=4706) resetRes=21887(ineff=19298,eff=2589) | bc++=24004 bc--=131259 inv=190258
[DSB @ 2000000 calls] bc=0 isBypassOn=true| real=1282467 virt=44721 notrack=672811 | touchRes=135946(eff=131193,ineff=4753) resetRes=22954(ineff=20219,eff=2735) | bc++=24972 bc--=133928 inv=200771
[DSB @ 2100000 calls] bc=0 isBypassOn=true| real=1382467 virt=44721 notrack=672811 | touchRes=135949(eff=131196,ineff=4753) resetRes=22954(ineff=20219,eff=2735) | bc++=24972 bc--=133931 inv=200771
[DSB @ 2200000 calls] bc=1 isBypassOn=true| real=1469436 virt=45468 notrack=685095 | touchRes=141693(eff=136898,ineff=4795) resetRes=23355(ineff=20589,eff=2766) | bc++=25384 bc--=139664 inv=206784
[DSB @ 2300000 calls] bc=0 isBypassOn=true| real=1526668 virt=48137 notrack=725194 | touchRes=153782(eff=148905,ineff=4877) resetRes=25278(ineff=22232,eff=3046) | bc++=27109 bc--=151951 inv=221138
[DSB @ 2400000 calls] bc=0 isBypassOn=true| real=1581533 virt=51049 notrack=767417 | touchRes=165366(eff=160330,ineff=5036) resetRes=26993(ineff=23782,eff=3211) | bc++=28818 bc--=163541 inv=236328
[DSB @ 2500000 calls] bc=8 isBypassOn=false| real=1636005 virt=53866 notrack=810128 | touchRes=175866(eff=170559,ineff=5307) resetRes=28982(ineff=25583,eff=3399) | bc++=30890 bc--=173958 inv=249157
[DSB @ 2600000 calls] bc=4 isBypassOn=true| real=1684786 virt=57061 notrack=858152 | touchRes=182813(eff=176849,ineff=5964) resetRes=30738(ineff=27222,eff=3516) | bc++=33186 bc--=180365 inv=259467
[DSB @ 2700000 calls] bc=8 isBypassOn=false| real=1744162 virt=59604 notrack=896233 | touchRes=193413(eff=187216,ineff=6197) resetRes=31655(ineff=28034,eff=3621) | bc++=34231 bc--=190837 inv=273290
Exiting @ tick 28097672779000 because a thread reached the max instruction count
