warn: The `get_runtime_isa` function is deprecated. Please migrate away from using this function.
warn: The se.py script is deprecated. It will be removed in future releases of  gem5.
warn: The `get_runtime_isa` function is deprecated. Please migrate away from using this function.
Global frequency set at 1000000000000 ticks per second
src/base/statistics.hh:279: warn: One of the stats is a legacy stat. Legacy stat is a stat that does not belong to any statistics::Group. Legacy stat is deprecated.
src/base/remote_gdb.cc:418: warn: Sockets disabled, not accepting gdb connections
src/sim/process.cc:396: warn: Checkpoints for pipes, device drivers and sockets do not work.
gem5 Simulator System.  https://www.gem5.org
gem5 is copyrighted software; use the --copyright option for details.

gem5 version 23.0.0.1
gem5 compiled Apr  6 2026 01:50:35
gem5 started Apr  6 2026 07:42:01
gem5 executing on b49ce2a326be, pid 155513
command line: /opt/gem5/build/X86/gem5.opt --outdir=/workspace/results_l3/1MB/policy1Config2/wrf /workspace/configs/run_spec_l3.py --rp-type=DSBRP --l3-size=1MB --l3-assoc=16 --cpu-type=DerivO3CPU --cmd=./wrf_s_base.gem5-x86 --options= --mem-size=8GB --maxinst=250000000 --caches --l2cache --l1d_size=32kB --l1i_size=32kB --l1d_assoc=8 --l1i_assoc=8 --l2_size=256kB --l2_assoc=8 --checkpoint-restore=1 --checkpoint-dir=/workspace/checkpoints/wrf/m5out --restore-with-cpu=AtomicSimpleCPU --standard-switch=1 --warmup-insts=50000000 --dsb-enable-bypass=true --dsb-enable-aging=true --dsb-bypass-counter=6 --dsb-virtual-bypass-counter=3 --dsb-random-promotion=0 --dsb-minimum-bypass-counter=12

info: Standard input is not a terminal, disabling listeners.
Replacement policy: DSBRP
L1I size: 32kB, assoc: 8
L1D size: 32kB, assoc: 8
L2 size: 256kB, assoc: 8
L3 size: 1MB, L3 assoc: 16
Switch at instruction count:1
src/sim/simulate.cc:194: info: Entering event queue @ 27778733914000.  Starting simulation...
src/sim/simulate.cc:194: info: Entering event queue @ 27778733915500.  Starting simulation...
src/sim/power_state.cc:105: warn: PowerState: Already in the requested power state, request ignored
Switched CPUS @ tick 27778733915500
switching cpus
Switch at instruction count:50000000
src/sim/simulate.cc:194: info: Entering event queue @ 27778733916000.  Starting simulation...
[DSB @ 100000 calls] bc=12 isBypassOn=false| real=51 virt=12438 notrack=87510 | touchRes=7173(eff=30,ineff=7143) resetRes=36(ineff=2,eff=34) | bc++=7145 bc--=64 inv=5
[DSB @ 200000 calls] bc=12 isBypassOn=false| real=51 virt=24930 notrack=175018 | touchRes=14721(eff=30,ineff=14691) resetRes=127(ineff=2,eff=125) | bc++=14693 bc--=155 inv=21
[DSB @ 300000 calls] bc=12 isBypassOn=false| real=2137 virt=37138 notrack=260724 | touchRes=21581(eff=168,ineff=21413) resetRes=440(ineff=123,eff=317) | bc++=21536 bc--=485 inv=1018
[DSB @ 400000 calls] bc=12 isBypassOn=false| real=2137 virt=49547 notrack=348315 | touchRes=29228(eff=168,ineff=29060) resetRes=443(ineff=123,eff=320) | bc++=29183 bc--=488 inv=1021
[DSB @ 500000 calls] bc=12 isBypassOn=false| real=2390 virt=62057 notrack=435552 | touchRes=36423(eff=172,ineff=36251) resetRes=766(ineff=123,eff=643) | bc++=36374 bc--=815 inv=1221
[DSB @ 600000 calls] bc=0 isBypassOn=true| real=39882 virt=69884 notrack=490233 | touchRes=41584(eff=549,ineff=41035) resetRes=1285(ineff=124,eff=1161) | bc++=41159 bc--=1710 inv=1799
src/sim/simulate.cc:194: info: Entering event queue @ 27942261729500.  Starting simulation...
Switching CPUS @ tick 27942261729500
Simulation ends instruction count:250000000
switching cpus
**** REAL SIMULATION ****
src/sim/simulate.cc:194: info: Entering event queue @ 27942261845750.  Starting simulation...
[DSB @ 700000 calls] bc=12 isBypassOn=false| real=48985 virt=81267 notrack=569747 | touchRes=51016(eff=3582,ineff=47434) resetRes=1314(ineff=134,eff=1180) | bc++=47568 bc--=4762 inv=2391
[DSB @ 800000 calls] bc=12 isBypassOn=false| real=49313 virt=93899 notrack=656787 | touchRes=58438(eff=3617,ineff=54821) resetRes=1993(ineff=134,eff=1859) | bc++=54955 bc--=5476 inv=2706
[DSB @ 900000 calls] bc=12 isBypassOn=false| real=49313 virt=106426 notrack=744260 | touchRes=65984(eff=3617,ineff=62367) resetRes=2015(ineff=134,eff=1881) | bc++=62501 bc--=5498 inv=2722
[DSB @ 1000000 calls] bc=12 isBypassOn=false| real=71585 virt=116103 notrack=812311 | touchRes=72059(eff=4333,ineff=67726) resetRes=2447(ineff=137,eff=2310) | bc++=67863 bc--=6643 inv=4227
[DSB @ 1100000 calls] bc=12 isBypassOn=false| real=71585 virt=128692 notrack=899722 | touchRes=79625(eff=4333,ineff=75292) resetRes=2472(ineff=137,eff=2335) | bc++=75429 bc--=6668 inv=4245
[DSB @ 1200000 calls] bc=12 isBypassOn=false| real=71830 virt=141068 notrack=987101 | touchRes=86811(eff=4348,ineff=82463) resetRes=3100(ineff=137,eff=2963) | bc++=82600 bc--=7311 inv=4547
[DSB @ 1300000 calls] bc=12 isBypassOn=false| real=71830 virt=153379 notrack=1074790 | touchRes=94301(eff=4348,ineff=89953) resetRes=3133(ineff=137,eff=2996) | bc++=90090 bc--=7344 inv=4564
[DSB @ 1400000 calls] bc=12 isBypassOn=false| real=72173 virt=165817 notrack=1162009 | touchRes=101499(eff=4351,ineff=97148) resetRes=3754(ineff=137,eff=3617) | bc++=97285 bc--=7968 inv=4990
[DSB @ 1500000 calls] bc=12 isBypassOn=false| real=72174 virt=178430 notrack=1249395 | touchRes=108835(eff=4351,ineff=104484) resetRes=3843(ineff=137,eff=3706) | bc++=104621 bc--=8057 inv=5042
[DSB @ 1600000 calls] bc=12 isBypassOn=false| real=72174 virt=190854 notrack=1336971 | touchRes=116342(eff=4351,ineff=111991) resetRes=3852(ineff=137,eff=3715) | bc++=112128 bc--=8066 inv=5050
[DSB @ 1700000 calls] bc=12 isBypassOn=false| real=72174 virt=203450 notrack=1424375 | touchRes=123991(eff=4351,ineff=119640) resetRes=3852(ineff=137,eff=3715) | bc++=119777 bc--=8066 inv=5051
[DSB @ 1800000 calls] bc=12 isBypassOn=false| real=72214 virt=216016 notrack=1511769 | touchRes=131411(eff=4352,ineff=127059) resetRes=3976(ineff=137,eff=3839) | bc++=127196 bc--=8191 inv=5125
[DSB @ 1900000 calls] bc=12 isBypassOn=false| real=72686 virt=228459 notrack=1598854 | touchRes=138553(eff=4385,ineff=134168) resetRes=4071(ineff=137,eff=3934) | bc++=134305 bc--=8319 inv=5437
[DSB @ 2000000 calls] bc=12 isBypassOn=false| real=72686 virt=241186 notrack=1686127 | touchRes=146185(eff=4385,ineff=141800) resetRes=4082(ineff=137,eff=3945) | bc++=141937 bc--=8330 inv=5473
[DSB @ 2100000 calls] bc=12 isBypassOn=true| real=72687 virt=253583 notrack=1773729 | touchRes=153711(eff=4385,ineff=149326) resetRes=4108(ineff=137,eff=3971) | bc++=149463 bc--=8356 inv=5494
[DSB @ 2200000 calls] bc=12 isBypassOn=false| real=72687 virt=266065 notrack=1861247 | touchRes=161169(eff=4385,ineff=156784) resetRes=4131(ineff=137,eff=3994) | bc++=156921 bc--=8379 inv=5507
[DSB @ 2300000 calls] bc=12 isBypassOn=false| real=72728 virt=278647 notrack=1948624 | touchRes=168501(eff=4386,ineff=164115) resetRes=4421(ineff=137,eff=4284) | bc++=164252 bc--=8670 inv=5550
[DSB @ 2400000 calls] bc=12 isBypassOn=false| real=72818 virt=291112 notrack=2036069 | touchRes=176010(eff=4405,ineff=171605) resetRes=4646(ineff=137,eff=4509) | bc++=171742 bc--=8914 inv=5628
Exiting @ tick 28117310635000 because a thread reached the max instruction count
