warn: The `get_runtime_isa` function is deprecated. Please migrate away from using this function.
warn: The se.py script is deprecated. It will be removed in future releases of  gem5.
warn: The `get_runtime_isa` function is deprecated. Please migrate away from using this function.
Global frequency set at 1000000000000 ticks per second
src/base/statistics.hh:279: warn: One of the stats is a legacy stat. Legacy stat is a stat that does not belong to any statistics::Group. Legacy stat is deprecated.
src/base/remote_gdb.cc:418: warn: Sockets disabled, not accepting gdb connections
src/sim/process.cc:396: warn: Checkpoints for pipes, device drivers and sockets do not work.
gem5 Simulator System.  https://www.gem5.org
gem5 is copyrighted software; use the --copyright option for details.

gem5 version 23.0.0.1
gem5 compiled Apr  6 2026 01:50:35
gem5 started Apr  6 2026 02:31:26
gem5 executing on b49ce2a326be, pid 100784
command line: /opt/gem5/build/X86/gem5.opt --outdir=/workspace/results_l3/1MB/policy0Config1/imagick /workspace/configs/run_spec_l3.py --rp-type=DSBRP --l3-size=1MB --l3-assoc=16 --cpu-type=DerivO3CPU --cmd=./imagick_s_base.gem5-x86 '--options=-limit disk 0 refspeed_input.tga -resize 817% -rotate -2.76 -shave 540x375 -alpha remove -auto-level -contrast-stretch 1x1% -colorspace Lab -channel R -equalize +channel -colorspace sRGB -define histogram:unique-colors=false -adaptive-blur 0x5 -despeckle -auto-gamma -adaptive-sharpen 55 -enhance -brightness-contrast 10x10 -resize 30% refspeed_output.tga' --mem-size=8GB --maxinst=250000000 --caches --l2cache --l1d_size=32kB --l1i_size=32kB --l1d_assoc=8 --l1i_assoc=8 --l2_size=256kB --l2_assoc=8 --checkpoint-restore=1 --checkpoint-dir=/workspace/checkpoints/imagick/m5out --restore-with-cpu=AtomicSimpleCPU --standard-switch=1 --warmup-insts=50000000 --dsb-enable-bypass=true --dsb-enable-aging=false --dsb-bypass-counter=6 --dsb-virtual-bypass-counter=4 --dsb-random-promotion=0 --dsb-minimum-bypass-counter=8

info: Standard input is not a terminal, disabling listeners.
Replacement policy: DSBRP
L1I size: 32kB, assoc: 8
L1D size: 32kB, assoc: 8
L2 size: 256kB, assoc: 8
L3 size: 1MB, L3 assoc: 16
Switch at instruction count:1
src/sim/simulate.cc:194: info: Entering event queue @ 26455902910500.  Starting simulation...
src/sim/power_state.cc:105: warn: PowerState: Already in the requested power state, request ignored
Switched CPUS @ tick 26455902912000
switching cpus
Switch at instruction count:50000000
src/sim/simulate.cc:194: info: Entering event queue @ 26455902912000.  Starting simulation...
[DSB @ 100000 calls] bc=0 isBypassOn=true| real=56470 virt=2713 notrack=40816 | touchRes=5475(eff=5193,ineff=282) resetRes=651(ineff=530,eff=121) | bc++=812 bc--=5314 inv=4363
src/sim/simulate.cc:194: info: Entering event queue @ 26549803478500.  Starting simulation...
Switching CPUS @ tick 26549803478500
Simulation ends instruction count:250000000
switching cpus
**** REAL SIMULATION ****
src/sim/simulate.cc:194: info: Entering event queue @ 26549803766000.  Starting simulation...
[DSB @ 200000 calls] bc=8 isBypassOn=true| real=118078 virt=5173 notrack=76748 | touchRes=11212(eff=10793,ineff=419) resetRes=1835(ineff=1606,eff=229) | bc++=2025 bc--=11022 inv=15663
[DSB @ 300000 calls] bc=8 isBypassOn=true| real=146648 virt=9697 notrack=143654 | touchRes=15444(eff=14726,ineff=718) resetRes=4219(ineff=3797,eff=422) | bc++=4515 bc--=15148 inv=26909
[DSB @ 400000 calls] bc=0 isBypassOn=true| real=183151 virt=13623 notrack=203225 | touchRes=21738(eff=20848,ineff=890) resetRes=5925(ineff=5276,eff=649) | bc++=6166 bc--=21497 inv=37019
[DSB @ 500000 calls] bc=0 isBypassOn=true| real=210638 virt=18230 notrack=271131 | touchRes=27697(eff=26363,ineff=1334) resetRes=8701(ineff=7774,eff=927) | bc++=9108 bc--=27290 inv=46437
[DSB @ 600000 calls] bc=8 isBypassOn=false| real=242498 virt=22423 notrack=335078 | touchRes=34387(eff=32730,ineff=1657) resetRes=11369(ineff=10137,eff=1232) | bc++=11794 bc--=33962 inv=55922
[DSB @ 700000 calls] bc=7 isBypassOn=true| real=272723 virt=26726 notrack=400550 | touchRes=40054(eff=37988,ineff=2066) resetRes=14437(ineff=12908,eff=1529) | bc++=14974 bc--=39517 inv=65465
Exiting @ tick 26654741397000 because a thread reached the max instruction count
