warn: The `get_runtime_isa` function is deprecated. Please migrate away from using this function.
warn: The se.py script is deprecated. It will be removed in future releases of  gem5.
warn: The `get_runtime_isa` function is deprecated. Please migrate away from using this function.
Global frequency set at 1000000000000 ticks per second
src/base/statistics.hh:279: warn: One of the stats is a legacy stat. Legacy stat is a stat that does not belong to any statistics::Group. Legacy stat is deprecated.
src/base/remote_gdb.cc:418: warn: Sockets disabled, not accepting gdb connections
src/sim/process.cc:396: warn: Checkpoints for pipes, device drivers and sockets do not work.
gem5 Simulator System.  https://www.gem5.org
gem5 is copyrighted software; use the --copyright option for details.

gem5 version 23.0.0.1
gem5 compiled Apr  6 2026 01:50:35
gem5 started Apr  6 2026 12:43:58
gem5 executing on b49ce2a326be, pid 208575
command line: /opt/gem5/build/X86/gem5.opt --outdir=/workspace/results_l3/2MB/policy0Config3/lbm /workspace/configs/run_spec_l3.py --rp-type=DSBRP --l3-size=2MB --l3-assoc=16 --cpu-type=DerivO3CPU --cmd=./lbm_s_base.gem5-x86 '--options=2000 reference.dat 0 0 200_200_260_ldc.of' --mem-size=8GB --maxinst=250000000 --caches --l2cache --l1d_size=32kB --l1i_size=32kB --l1d_assoc=8 --l1i_assoc=8 --l2_size=256kB --l2_assoc=8 --checkpoint-restore=1 --checkpoint-dir=/workspace/checkpoints/lbm/m5out --restore-with-cpu=AtomicSimpleCPU --standard-switch=1 --warmup-insts=50000000 --dsb-enable-bypass=true --dsb-enable-aging=false --dsb-bypass-counter=3 --dsb-virtual-bypass-counter=3 --dsb-random-promotion=0 --dsb-minimum-bypass-counter=12

info: Standard input is not a terminal, disabling listeners.
Replacement policy: DSBRP
L1I size: 32kB, assoc: 8
L1D size: 32kB, assoc: 8
L2 size: 256kB, assoc: 8
L3 size: 2MB, L3 assoc: 16
Switch at instruction count:1
src/sim/simulate.cc:194: info: Entering event queue @ 25728322212500.  Starting simulation...
src/sim/simulate.cc:194: info: Entering event queue @ 25728322214000.  Starting simulation...
src/sim/power_state.cc:105: warn: PowerState: Already in the requested power state, request ignored
Switched CPUS @ tick 25728322214000
switching cpus
Switch at instruction count:50000000
src/sim/simulate.cc:194: info: Entering event queue @ 25728322215000.  Starting simulation...
[DSB @ 100000 calls] bc=12 isBypassOn=false| real=26187 virt=9192 notrack=64620 | touchRes=7305(eff=3594,ineff=3711) resetRes=2143(ineff=1556,eff=587) | bc++=5267 bc--=4181 inv=8632
[DSB @ 200000 calls] bc=12 isBypassOn=false| real=68024 virt=16428 notrack=115547 | touchRes=13235(eff=8877,ineff=4358) resetRes=5202(ineff=3878,eff=1324) | bc++=8236 bc--=10201 inv=21908
[DSB @ 300000 calls] bc=3 isBypassOn=true| real=109631 virt=23694 notrack=166674 | touchRes=19183(eff=14207,ineff=4976) resetRes=8305(ineff=6193,eff=2112) | bc++=11169 bc--=16319 inv=34794
[DSB @ 400000 calls] bc=0 isBypassOn=true| real=148382 virt=31358 notrack=220259 | touchRes=24796(eff=19169,ineff=5627) resetRes=11490(ineff=8559,eff=2931) | bc++=14186 bc--=22100 inv=48432
[DSB @ 500000 calls] bc=12 isBypassOn=false| real=186987 virt=39061 notrack=273951 | touchRes=30477(eff=24173,ineff=6304) resetRes=14365(ineff=10698,eff=3667) | bc++=17002 bc--=27840 inv=61970
[DSB @ 600000 calls] bc=0 isBypassOn=true| real=227041 virt=46580 notrack=326378 | touchRes=36304(eff=29342,ineff=6962) resetRes=17504(ineff=12989,eff=4515) | bc++=19951 bc--=33857 inv=74965
[DSB @ 700000 calls] bc=0 isBypassOn=true| real=265613 virt=54288 notrack=380098 | touchRes=41712(eff=34117,ineff=7595) resetRes=20716(ineff=15411,eff=5305) | bc++=23006 bc--=39422 inv=88606
[DSB @ 800000 calls] bc=12 isBypassOn=false| real=305921 virt=61703 notrack=432375 | touchRes=47556(eff=39368,ineff=8188) resetRes=23843(ineff=17784,eff=6059) | bc++=25972 bc--=45427 inv=102182
[DSB @ 900000 calls] bc=12 isBypassOn=false| real=347750 virt=68848 notrack=483401 | touchRes=53459(eff=44687,ineff=8772) resetRes=27006(ineff=20202,eff=6804) | bc++=28974 bc--=51491 inv=115648
[DSB @ 1000000 calls] bc=12 isBypassOn=true| real=389480 virt=76088 notrack=534431 | touchRes=59418(eff=50085,ineff=9333) resetRes=30175(ineff=22599,eff=7576) | bc++=31932 bc--=57661 inv=128995
[DSB @ 1100000 calls] bc=4 isBypassOn=true| real=430992 virt=83304 notrack=585703 | touchRes=65342(eff=55334,ineff=10008) resetRes=33097(ineff=24732,eff=8365) | bc++=34740 bc--=63699 inv=141814
[DSB @ 1200000 calls] bc=0 isBypassOn=true| real=467722 virt=91210 notrack=641067 | touchRes=70671(eff=60019,ineff=10652) resetRes=36303(ineff=27131,eff=9172) | bc++=37783 bc--=69191 inv=155473
[DSB @ 1300000 calls] bc=1 isBypassOn=true| real=509443 virt=98546 notrack=692010 | touchRes=76584(eff=65289,ineff=11295) resetRes=39460(ineff=29500,eff=9960) | bc++=40795 bc--=75249 inv=168980
[DSB @ 1400000 calls] bc=12 isBypassOn=false| real=550374 virt=105917 notrack=743708 | touchRes=82507(eff=70539,ineff=11968) resetRes=42465(ineff=31759,eff=10706) | bc++=43727 bc--=81245 inv=182516
[DSB @ 1500000 calls] bc=12 isBypassOn=false| real=591986 virt=113225 notrack=794788 | touchRes=88454(eff=75842,ineff=12612) resetRes=45514(ineff=34015,eff=11499) | bc++=46627 bc--=87341 inv=195754
[DSB @ 1600000 calls] bc=0 isBypassOn=true| real=632505 virt=120673 notrack=846821 | touchRes=94302(eff=81064,ineff=13238) resetRes=48647(ineff=36378,eff=12269) | bc++=49616 bc--=93333 inv=208814
[DSB @ 1700000 calls] bc=0 isBypassOn=true| real=672889 virt=128095 notrack=899015 | touchRes=99970(eff=86079,ineff=13891) resetRes=51791(ineff=38773,eff=13018) | bc++=52664 bc--=99097 inv=222527
src/sim/simulate.cc:194: info: Entering event queue @ 25954820797500.  Starting simulation...
Switching CPUS @ tick 25954820797500
Simulation ends instruction count:250000000
switching cpus
**** REAL SIMULATION ****
src/sim/simulate.cc:194: info: Entering event queue @ 25954821040000.  Starting simulation...
[DSB @ 1800000 calls] bc=0 isBypassOn=true| real=712054 virt=135648 notrack=952297 | touchRes=105698(eff=91169,ineff=14529) resetRes=54978(ineff=41168,eff=13810) | bc++=55697 bc--=104979 inv=236100
[DSB @ 1900000 calls] bc=12 isBypassOn=false| real=754687 virt=142758 notrack=1002554 | touchRes=111670(eff=96491,ineff=15179) resetRes=58092(ineff=43492,eff=14600) | bc++=58671 bc--=111091 inv=249405
[DSB @ 2000000 calls] bc=0 isBypassOn=true| real=795863 virt=150188 notrack=1053948 | touchRes=117624(eff=101828,ineff=15796) resetRes=61280(ineff=45877,eff=15403) | bc++=61673 bc--=117231 inv=262301
[DSB @ 2100000 calls] bc=0 isBypassOn=true| real=834526 virt=157744 notrack=1107729 | touchRes=123196(eff=106813,ineff=16383) resetRes=64451(ineff=48297,eff=16154) | bc++=64680 bc--=122967 inv=275782
[DSB @ 2200000 calls] bc=12 isBypassOn=true| real=873954 virt=165170 notrack=1160875 | touchRes=128952(eff=111953,ineff=16999) resetRes=67656(ineff=50712,eff=16944) | bc++=67711 bc--=128897 inv=289376
[DSB @ 2300000 calls] bc=9 isBypassOn=true| real=915863 virt=172402 notrack=1211734 | touchRes=134906(eff=117240,ineff=17666) resetRes=70697(ineff=52974,eff=17723) | bc++=70640 bc--=134963 inv=302363
[DSB @ 2400000 calls] bc=0 isBypassOn=true| real=953064 virt=180351 notrack=1266584 | touchRes=140313(eff=121998,ineff=18315) resetRes=73894(ineff=55349,eff=18545) | bc++=73664 bc--=140543 inv=315924
[DSB @ 2500000 calls] bc=10 isBypassOn=true| real=994449 virt=187743 notrack=1317807 | touchRes=146273(eff=127352,ineff=18921) resetRes=77172(ineff=57905,eff=19267) | bc++=76826 bc--=146619 inv=329595
[DSB @ 2600000 calls] bc=11 isBypassOn=true| real=1035718 virt=195230 notrack=1369051 | touchRes=152173(eff=132615,ineff=19558) resetRes=80232(ineff=60142,eff=20090) | bc++=79700 bc--=152705 inv=342709
[DSB @ 2700000 calls] bc=12 isBypassOn=false| real=1077008 virt=202574 notrack=1420417 | touchRes=158212(eff=138064,ineff=20148) resetRes=83462(ineff=62604,eff=20858) | bc++=82752 bc--=158922 inv=356066
[DSB @ 2800000 calls] bc=10 isBypassOn=true| real=1118805 virt=209808 notrack=1471386 | touchRes=164196(eff=143435,ineff=20761) resetRes=86588(ineff=64966,eff=21622) | bc++=85727 bc--=165057 inv=369088
[DSB @ 2900000 calls] bc=0 isBypassOn=true| real=1157882 virt=217487 notrack=1524630 | touchRes=169725(eff=148339,ineff=21386) resetRes=89863(ineff=67463,eff=22400) | bc++=88849 bc--=170739 inv=382534
[DSB @ 3000000 calls] bc=12 isBypassOn=true| real=1197840 virt=225021 notrack=1577138 | touchRes=175528(eff=153494,ineff=22034) resetRes=92927(ineff=69698,eff=23229) | bc++=91732 bc--=176723 inv=395902
[DSB @ 3100000 calls] bc=0 isBypassOn=true| real=1236318 virt=232722 notrack=1630959 | touchRes=181038(eff=158373,ineff=22665) resetRes=96042(ineff=72048,eff=23994) | bc++=94713 bc--=182367 inv=409153
[DSB @ 3200000 calls] bc=12 isBypassOn=true| real=1275900 virt=240280 notrack=1683819 | touchRes=186856(eff=163565,ineff=23291) resetRes=99289(ineff=74486,eff=24803) | bc++=97777 bc--=188368 inv=422802
[DSB @ 3300000 calls] bc=0 isBypassOn=true| real=1316165 virt=247739 notrack=1736095 | touchRes=192691(eff=168728,ineff=23963) resetRes=102287(ineff=76663,eff=25624) | bc++=100626 bc--=194352 inv=435680
[DSB @ 3400000 calls] bc=0 isBypassOn=true| real=1356675 virt=255151 notrack=1788173 | touchRes=198553(eff=173976,ineff=24577) resetRes=105471(ineff=79076,eff=26395) | bc++=103653 bc--=200371 inv=449021
[DSB @ 3500000 calls] bc=0 isBypassOn=true| real=1395220 virt=262831 notrack=1841948 | touchRes=204160(eff=178941,ineff=25219) resetRes=108652(ineff=81502,eff=27150) | bc++=106721 bc--=206091 inv=462689
[DSB @ 3600000 calls] bc=0 isBypassOn=true| real=1435441 virt=270217 notrack=1894341 | touchRes=209969(eff=184102,ineff=25867) resetRes=111617(ineff=83667,eff=27950) | bc++=109534 bc--=212052 inv=475460
[DSB @ 3700000 calls] bc=11 isBypassOn=true| real=1473431 virt=278010 notrack=1948558 | touchRes=215356(eff=188858,ineff=26498) resetRes=114920(ineff=86181,eff=28739) | bc++=112679 bc--=217597 inv=489296
[DSB @ 3800000 calls] bc=4 isBypassOn=true| real=1514957 virt=285268 notrack=1999774 | touchRes=221350(eff=194177,ineff=27173) resetRes=117878(ineff=88368,eff=29510) | bc++=115541 bc--=223687 inv=502199
[DSB @ 3900000 calls] bc=1 isBypassOn=true| real=1553087 virt=293174 notrack=2053738 | touchRes=226841(eff=199040,ineff=27801) resetRes=121091(ineff=90766,eff=30325) | bc++=118567 bc--=229365 inv=515757
[DSB @ 4000000 calls] bc=10 isBypassOn=true| real=1593110 virt=300805 notrack=2106084 | touchRes=232636(eff=204242,ineff=28394) resetRes=124363(ineff=93269,eff=31094) | bc++=121663 bc--=235336 inv=529595
[DSB @ 4100000 calls] bc=12 isBypassOn=false| real=1634736 virt=308133 notrack=2157130 | touchRes=238598(eff=209569,ineff=29029) resetRes=127520(ineff=95678,eff=31842) | bc++=124707 bc--=241411 inv=543092
[DSB @ 4200000 calls] bc=12 isBypassOn=false| real=1677585 virt=315265 notrack=2207149 | touchRes=244675(eff=215014,ineff=29661) resetRes=130715(ineff=98117,eff=32598) | bc++=127778 bc--=247612 inv=556475
[DSB @ 4300000 calls] bc=0 isBypassOn=true| real=1715473 virt=323029 notrack=2261497 | touchRes=250061(eff=219733,ineff=30328) resetRes=133815(ineff=100404,eff=33411) | bc++=130732 bc--=253144 inv=569727
[DSB @ 4400000 calls] bc=12 isBypassOn=false| real=1756887 virt=330477 notrack=2312635 | touchRes=256011(eff=225063,ineff=30948) resetRes=137010(ineff=102858,eff=34152) | bc++=133806 bc--=259215 inv=583524
[DSB @ 4500000 calls] bc=0 isBypassOn=true| real=1794477 virt=338239 notrack=2367283 | touchRes=261369(eff=229757,ineff=31612) resetRes=140037(ineff=105079,eff=34958) | bc++=136691 bc--=264715 inv=596622
[DSB @ 4600000 calls] bc=1 isBypassOn=true| real=1835861 virt=345647 notrack=2418491 | touchRes=267402(eff=235195,ineff=32207) resetRes=143233(ineff=107489,eff=35744) | bc++=139696 bc--=270939 inv=609863
[DSB @ 4700000 calls] bc=12 isBypassOn=false| real=1875197 virt=353233 notrack=2471569 | touchRes=273155(eff=240365,ineff=32790) resetRes=146358(ineff=109893,eff=36465) | bc++=142683 bc--=276830 inv=623496
[DSB @ 4800000 calls] bc=0 isBypassOn=true| real=1914105 virt=360867 notrack=2525027 | touchRes=278738(eff=245243,ineff=33495) resetRes=149378(ineff=112095,eff=37283) | bc++=145590 bc--=282526 inv=636358
[DSB @ 4900000 calls] bc=12 isBypassOn=false| real=1952984 virt=368520 notrack=2578495 | touchRes=284457(eff=250300,ineff=34157) resetRes=152485(ineff=114409,eff=38076) | bc++=148566 bc--=288376 inv=649991
[DSB @ 5000000 calls] bc=0 isBypassOn=true| real=1994490 virt=375787 notrack=2629722 | touchRes=290392(eff=255607,ineff=34785) resetRes=155517(ineff=116670,eff=38847) | bc++=151455 bc--=294454 inv=662618
[DSB @ 5100000 calls] bc=1 isBypassOn=true| real=2031471 virt=383604 notrack=2684924 | touchRes=295695(eff=260301,ineff=35394) resetRes=158805(ineff=119133,eff=39672) | bc++=154527 bc--=299973 inv=676507
[DSB @ 5200000 calls] bc=0 isBypassOn=true| real=2072585 virt=390899 notrack=2736515 | touchRes=301609(eff=265558,ineff=36051) resetRes=161758(ineff=121326,eff=40432) | bc++=157377 bc--=305990 inv=689472
[DSB @ 5300000 calls] bc=0 isBypassOn=true| real=2109364 virt=398813 notrack=2791822 | touchRes=307058(eff=270353,ineff=36705) resetRes=164972(ineff=123734,eff=41238) | bc++=160439 bc--=311591 inv=703126
[DSB @ 5400000 calls] bc=0 isBypassOn=true| real=2150980 virt=406090 notrack=2842929 | touchRes=313135(eff=275828,ineff=37307) resetRes=168184(ineff=126164,eff=42020) | bc++=163471 bc--=317848 inv=716478
[DSB @ 5500000 calls] bc=12 isBypassOn=false| real=2192390 virt=413338 notrack=2894271 | touchRes=319169(eff=281220,ineff=37949) resetRes=171380(ineff=128603,eff=42777) | bc++=166552 bc--=323997 inv=730089
[DSB @ 5600000 calls] bc=0 isBypassOn=true| real=2233494 virt=420767 notrack=2945738 | touchRes=325031(eff=286482,ineff=38549) resetRes=174395(ineff=130802,eff=43593) | bc++=169351 bc--=330075 inv=742844
[DSB @ 5700000 calls] bc=0 isBypassOn=true| real=2271551 virt=428545 notrack=2999903 | touchRes=330484(eff=291288,ineff=39196) resetRes=177675(ineff=133289,eff=44386) | bc++=172485 bc--=335674 inv=756691
[DSB @ 5800000 calls] bc=12 isBypassOn=false| real=2312840 virt=435923 notrack=3051236 | touchRes=336368(eff=296556,ineff=39812) resetRes=180821(ineff=135690,eff=45131) | bc++=175502 bc--=341687 inv=770157
[DSB @ 5900000 calls] bc=0 isBypassOn=true| real=2352373 virt=443486 notrack=3104140 | touchRes=341973(eff=301518,ineff=40455) resetRes=183994(ineff=138039,eff=45955) | bc++=178494 bc--=347473 inv=783114
[DSB @ 6000000 calls] bc=0 isBypassOn=true| real=2391694 virt=450980 notrack=3157325 | touchRes=347749(eff=306659,ineff=41090) resetRes=187225(ineff=140493,eff=46732) | bc++=181583 bc--=353391 inv=796626
[DSB @ 6100000 calls] bc=12 isBypassOn=false| real=2432872 virt=458301 notrack=3208826 | touchRes=353636(eff=311950,ineff=41686) resetRes=190408(ineff=142921,eff=47487) | bc++=184607 bc--=359437 inv=810233
[DSB @ 6200000 calls] bc=12 isBypassOn=false| real=2474622 virt=465624 notrack=3259753 | touchRes=359633(eff=317328,ineff=42305) resetRes=193534(ineff=145273,eff=48261) | bc++=187578 bc--=365589 inv=823518
[DSB @ 6300000 calls] bc=10 isBypassOn=true| real=2516759 virt=472800 notrack=3310440 | touchRes=365605(eff=322673,ineff=42932) resetRes=196704(ineff=147618,eff=49086) | bc++=190550 bc--=371759 inv=836604
[DSB @ 6400000 calls] bc=0 isBypassOn=true| real=2554763 virt=480504 notrack=3364732 | touchRes=371106(eff=327510,ineff=43596) resetRes=199937(ineff=150033,eff=49904) | bc++=193629 bc--=377414 inv=850028
[DSB @ 6500000 calls] bc=1 isBypassOn=true| real=2594954 virt=487902 notrack=3417143 | touchRes=376904(eff=332707,ineff=44197) resetRes=203141(ineff=152450,eff=50691) | bc++=196647 bc--=383398 inv=863404
[DSB @ 6600000 calls] bc=11 isBypassOn=true| real=2635581 virt=495328 notrack=3469090 | touchRes=382856(eff=338061,ineff=44795) resetRes=206398(ineff=154911,eff=51487) | bc++=199706 bc--=389548 inv=876806
[DSB @ 6700000 calls] bc=12 isBypassOn=false| real=2677463 virt=502659 notrack=3519877 | touchRes=388826(eff=343416,ineff=45410) resetRes=209595(ineff=157328,eff=52267) | bc++=202738 bc--=395683 inv=890241
[DSB @ 6800000 calls] bc=4 isBypassOn=true| real=2713771 virt=510632 notrack=3575596 | touchRes=394127(eff=348039,ineff=46088) resetRes=212710(ineff=159560,eff=53150) | bc++=205648 bc--=401189 inv=903137
[DSB @ 6900000 calls] bc=12 isBypassOn=false| real=2755509 virt=517901 notrack=3626589 | touchRes=400062(eff=353360,ineff=46702) resetRes=215793(ineff=161883,eff=53910) | bc++=208585 bc--=407270 inv=916507
[DSB @ 7000000 calls] bc=0 isBypassOn=true| real=2793014 virt=525607 notrack=3681378 | touchRes=405395(eff=358044,ineff=47351) resetRes=218993(ineff=164225,eff=54768) | bc++=211576 bc--=412812 inv=929557
[DSB @ 7100000 calls] bc=12 isBypassOn=false| real=2834223 virt=532953 notrack=3732823 | touchRes=411295(eff=363307,ineff=47988) resetRes=222103(ineff=166561,eff=55542) | bc++=214549 bc--=418849 inv=942942
[DSB @ 7200000 calls] bc=12 isBypassOn=false| real=2876301 virt=540332 notrack=3783366 | touchRes=417344(eff=368765,ineff=48579) resetRes=225404(ineff=169057,eff=56347) | bc++=217636 bc--=425112 inv=956353
[DSB @ 7300000 calls] bc=1 isBypassOn=true| real=2912938 virt=548267 notrack=3838794 | touchRes=422673(eff=373408,ineff=49265) resetRes=228532(ineff=171385,eff=57147) | bc++=220650 bc--=430555 inv=969773
[DSB @ 7400000 calls] bc=12 isBypassOn=true| real=2953728 virt=555672 notrack=3890599 | touchRes=428583(eff=378704,ineff=49879) resetRes=231607(ineff=173724,eff=57883) | bc++=223603 bc--=436587 inv=983440
[DSB @ 7500000 calls] bc=0 isBypassOn=true| real=2994071 virt=563164 notrack=3942764 | touchRes=434316(eff=383821,ineff=50495) resetRes=234721(ineff=175979,eff=58742) | bc++=226474 bc--=442563 inv=996148
[DSB @ 7600000 calls] bc=12 isBypassOn=false| real=3032166 virt=570849 notrack=3996984 | touchRes=439736(eff=388653,ineff=51083) resetRes=238019(ineff=178480,eff=59539) | bc++=229563 bc--=448192 inv=1009980
[DSB @ 7700000 calls] bc=12 isBypassOn=false| real=3073759 virt=578206 notrack=4048034 | touchRes=445702(eff=393950,ineff=51752) resetRes=241064(ineff=180760,eff=60304) | bc++=232512 bc--=454254 inv=1023318
[DSB @ 7800000 calls] bc=12 isBypassOn=false| real=3115666 virt=585540 notrack=4098793 | touchRes=451709(eff=399337,ineff=52372) resetRes=244245(ineff=183170,eff=61075) | bc++=235542 bc--=460412 inv=1036612
[DSB @ 7900000 calls] bc=0 isBypassOn=true| real=3152185 virt=593471 notrack=4154343 | touchRes=457021(eff=403980,ineff=53041) resetRes=247459(ineff=185561,eff=61898) | bc++=238602 bc--=465878 inv=1050186
[DSB @ 8000000 calls] bc=12 isBypassOn=false| real=3193187 virt=600935 notrack=4205877 | touchRes=462859(eff=409149,ineff=53710) resetRes=250493(ineff=187787,eff=62706) | bc++=241497 bc--=471855 inv=1063249
[DSB @ 8100000 calls] bc=0 isBypassOn=true| real=3232665 virt=608509 notrack=4258825 | touchRes=468462(eff=414116,ineff=54346) resetRes=253878(ineff=190325,eff=63553) | bc++=244671 bc--=477669 inv=1076394
[DSB @ 8200000 calls] bc=0 isBypassOn=true| real=3270993 virt=616143 notrack=4312863 | touchRes=474038(eff=419090,ineff=54948) resetRes=257215(ineff=192856,eff=64359) | bc++=247804 bc--=483449 inv=1089793
[DSB @ 8300000 calls] bc=10 isBypassOn=true| real=3311838 virt=623631 notrack=4364530 | touchRes=479901(eff=424314,ineff=55587) resetRes=260583(ineff=195400,eff=65183) | bc++=250987 bc--=489497 inv=1103036
[DSB @ 8400000 calls] bc=12 isBypassOn=false| real=3352670 virt=631009 notrack=4416320 | touchRes=485779(eff=429520,ineff=56259) resetRes=263648(ineff=197686,eff=65962) | bc++=253945 bc--=495482 inv=1116047
[DSB @ 8500000 calls] bc=0 isBypassOn=true| real=3390490 virt=638848 notrack=4470661 | touchRes=491127(eff=434265,ineff=56862) resetRes=267004(ineff=200185,eff=66819) | bc++=257047 bc--=501084 inv=1129160
[DSB @ 8600000 calls] bc=11 isBypassOn=true| real=3430371 virt=646427 notrack=4523201 | touchRes=496915(eff=439427,ineff=57488) resetRes=270380(ineff=202741,eff=67639) | bc++=260229 bc--=507066 inv=1142859
[DSB @ 8700000 calls] bc=0 isBypassOn=true| real=3476529 virt=653071 notrack=4570399 | touchRes=503625(eff=445811,ineff=57814) resetRes=272801(ineff=204566,eff=68235) | bc++=262380 bc--=514046 inv=1157165
[DSB @ 8800000 calls] bc=0 isBypassOn=true| real=3530948 virt=658745 notrack=4610306 | touchRes=512062(eff=454124,ineff=57938) resetRes=274965(ineff=206300,eff=68665) | bc++=264238 bc--=522789 inv=1173520
[DSB @ 8900000 calls] bc=1 isBypassOn=true| real=3584794 virt=664553 notrack=4650652 | touchRes=520476(eff=462405,ineff=58071) resetRes=277095(ineff=207998,eff=69097) | bc++=266069 bc--=531502 inv=1190126
[DSB @ 9000000 calls] bc=12 isBypassOn=false| real=3640129 virt=670109 notrack=4689761 | touchRes=529088(eff=470866,ineff=58222) resetRes=279282(ineff=209697,eff=69585) | bc++=267919 bc--=540451 inv=1206292
[DSB @ 9100000 calls] bc=11 isBypassOn=true| real=3695743 virt=675534 notrack=4728722 | touchRes=537682(eff=479319,ineff=58363) resetRes=281502(ineff=211452,eff=70050) | bc++=269815 bc--=549369 inv=1222525
[DSB @ 9200000 calls] bc=12 isBypassOn=false| real=3751020 virt=681094 notrack=4767885 | touchRes=546241(eff=487744,ineff=58497) resetRes=283686(ineff=213168,eff=70518) | bc++=271665 bc--=558262 inv=1238820
[DSB @ 9300000 calls] bc=12 isBypassOn=false| real=3806385 virt=686634 notrack=4806980 | touchRes=554788(eff=496155,ineff=58633) resetRes=285916(ineff=214911,eff=71005) | bc++=273544 bc--=567160 inv=1255079
[DSB @ 9400000 calls] bc=12 isBypassOn=false| real=3863660 virt=692021 notrack=4844318 | touchRes=563153(eff=504359,ineff=58794) resetRes=287956(ineff=216502,eff=71454) | bc++=275296 bc--=575813 inv=1271039
[DSB @ 9500000 calls] bc=12 isBypassOn=false| real=3921141 virt=697317 notrack=4881541 | touchRes=571457(eff=512474,ineff=58983) resetRes=289890(ineff=218019,eff=71871) | bc++=277002 bc--=584345 inv=1287368
[DSB @ 9600000 calls] bc=12 isBypassOn=true| real=3978550 virt=702657 notrack=4918792 | touchRes=579645(eff=520481,ineff=59164) resetRes=291810(ineff=219549,eff=72261) | bc++=278713 bc--=592742 inv=1303950
[DSB @ 9700000 calls] bc=11 isBypassOn=true| real=4035871 virt=707984 notrack=4956144 | touchRes=587863(eff=528531,ineff=59332) resetRes=293744(ineff=221070,eff=72674) | bc++=280402 bc--=601205 inv=1320367
[DSB @ 9800000 calls] bc=12 isBypassOn=true| real=4093862 virt=713249 notrack=4992888 | touchRes=596011(eff=536506,ineff=59505) resetRes=295656(ineff=222593,eff=73063) | bc++=282098 bc--=609569 inv=1336776
[DSB @ 9900000 calls] bc=7 isBypassOn=true| real=4150811 virt=718632 notrack=5030556 | touchRes=604240(eff=544572,ineff=59668) resetRes=297595(ineff=224119,eff=73476) | bc++=283787 bc--=618048 inv=1353211
[DSB @ 10000000 calls] bc=0 isBypassOn=true| real=4214122 virt=723200 notrack=5062677 | touchRes=612337(eff=552468,ineff=59869) resetRes=299501(ineff=225682,eff=73819) | bc++=285551 bc--=626287 inv=1368120
[DSB @ 10100000 calls] bc=0 isBypassOn=true| real=4278047 virt=727737 notrack=5094215 | touchRes=620120(eff=560111,ineff=60009) resetRes=301477(ineff=227319,eff=74158) | bc++=287328 bc--=634269 inv=1383128
[DSB @ 10200000 calls] bc=0 isBypassOn=true| real=4336964 virt=732796 notrack=5130239 | touchRes=628332(eff=568171,ineff=60161) resetRes=303405(ineff=228868,eff=74537) | bc++=289029 bc--=642708 inv=1399326
[DSB @ 10300000 calls] bc=0 isBypassOn=true| real=4394451 virt=738157 notrack=5167391 | touchRes=636214(eff=575875,ineff=60339) resetRes=305348(ineff=230426,eff=74922) | bc++=290765 bc--=650797 inv=1415875
[DSB @ 10400000 calls] bc=0 isBypassOn=true| real=4451538 virt=743613 notrack=5204848 | touchRes=644303(eff=583818,ineff=60485) resetRes=307298(ineff=231976,eff=75322) | bc++=292461 bc--=659140 inv=1432289
[DSB @ 10500000 calls] bc=0 isBypassOn=true| real=4507438 virt=749112 notrack=5243449 | touchRes=652374(eff=591733,ineff=60641) resetRes=309202(ineff=233489,eff=75713) | bc++=294130 bc--=667446 inv=1448893
[DSB @ 10600000 calls] bc=0 isBypassOn=true| real=4584165 virt=752043 notrack=5263791 | touchRes=659359(eff=598576,ineff=60783) resetRes=311107(ineff=235195,eff=75912) | bc++=295978 bc--=674488 inv=1461034
[DSB @ 10700000 calls] bc=1 isBypassOn=true| real=4661688 virt=754823 notrack=5283488 | touchRes=666120(eff=605198,ineff=60922) resetRes=313040(ineff=236976,eff=76064) | bc++=297898 bc--=681262 inv=1473267
[DSB @ 10800000 calls] bc=0 isBypassOn=true| real=4719231 virt=760114 notrack=5320654 | touchRes=674136(eff=613039,ineff=61097) resetRes=314989(ineff=238526,eff=76463) | bc++=299623 bc--=689502 inv=1489425
[DSB @ 10900000 calls] bc=0 isBypassOn=true| real=4776671 virt=765456 notrack=5357872 | touchRes=682255(eff=620987,ineff=61268) resetRes=316868(ineff=240024,eff=76844) | bc++=301292 bc--=697831 inv=1505812
[DSB @ 11000000 calls] bc=1 isBypassOn=true| real=4832849 virt=771016 notrack=5396134 | touchRes=690339(eff=628891,ineff=61448) resetRes=318800(ineff=241549,eff=77251) | bc++=302997 bc--=706142 inv=1522313
[DSB @ 11100000 calls] bc=1 isBypassOn=true| real=4889928 virt=776392 notrack=5433679 | touchRes=698495(eff=636874,ineff=61621) resetRes=320725(ineff=243061,eff=77664) | bc++=304682 bc--=714538 inv=1538746
[DSB @ 11200000 calls] bc=0 isBypassOn=true| real=4945524 virt=781967 notrack=5472508 | touchRes=706509(eff=644707,ineff=61802) resetRes=322707(ineff=244603,eff=78104) | bc++=306405 bc--=722811 inv=1555479
[DSB @ 11300000 calls] bc=0 isBypassOn=true| real=5003474 virt=787306 notrack=5509219 | touchRes=714758(eff=652810,ineff=61948) resetRes=324615(ineff=246114,eff=78501) | bc++=308062 bc--=731311 inv=1571917
[DSB @ 11400000 calls] bc=0 isBypassOn=true| real=5062734 virt=792300 notrack=5544965 | touchRes=722653(eff=660549,ineff=62104) resetRes=326508(ineff=247652,eff=78856) | bc++=309756 bc--=739405 inv=1587702
[DSB @ 11500000 calls] bc=1 isBypassOn=true| real=5118199 virt=797775 notrack=5584025 | touchRes=730749(eff=668467,ineff=62282) resetRes=328429(ineff=249167,eff=79262) | bc++=311449 bc--=747729 inv=1604410
[DSB @ 11600000 calls] bc=5 isBypassOn=true| real=5176254 virt=803013 notrack=5620732 | touchRes=738997(eff=676551,ineff=62446) resetRes=330316(ineff=250680,eff=79636) | bc++=313126 bc--=756187 inv=1620606
[DSB @ 11700000 calls] bc=12 isBypassOn=true| real=5232660 virt=808355 notrack=5658984 | touchRes=747322(eff=684651,ineff=62671) resetRes=332159(ineff=252159,eff=80000) | bc++=314830 bc--=764651 inv=1636847
[DSB @ 11800000 calls] bc=11 isBypassOn=true| real=5289801 virt=813723 notrack=5696475 | touchRes=755564(eff=692738,ineff=62826) resetRes=334066(ineff=253666,eff=80400) | bc++=316492 bc--=773138 inv=1653186
[DSB @ 11900000 calls] bc=12 isBypassOn=false| real=5347759 virt=819033 notrack=5733207 | touchRes=763732(eff=700734,ineff=62998) resetRes=336003(ineff=255192,eff=80811) | bc++=318190 bc--=781545 inv=1669625
[DSB @ 12000000 calls] bc=12 isBypassOn=true| real=5404869 virt=824443 notrack=5770687 | touchRes=771974(eff=708817,ineff=63157) resetRes=337980(ineff=256741,eff=81239) | bc++=319898 bc--=790056 inv=1686149
[DSB @ 12100000 calls] bc=0 isBypassOn=true| real=5470286 virt=828720 notrack=5800993 | touchRes=779909(eff=716601,ineff=63308) resetRes=339934(ineff=258358,eff=81576) | bc++=321666 bc--=798177 inv=1700420
Exiting @ tick 26600807415500 because a thread reached the max instruction count
