warn: The `get_runtime_isa` function is deprecated. Please migrate away from using this function.
warn: The se.py script is deprecated. It will be removed in future releases of  gem5.
warn: The `get_runtime_isa` function is deprecated. Please migrate away from using this function.
Global frequency set at 1000000000000 ticks per second
src/base/statistics.hh:279: warn: One of the stats is a legacy stat. Legacy stat is a stat that does not belong to any statistics::Group. Legacy stat is deprecated.
src/base/remote_gdb.cc:418: warn: Sockets disabled, not accepting gdb connections
src/sim/process.cc:396: warn: Checkpoints for pipes, device drivers and sockets do not work.
gem5 Simulator System.  https://www.gem5.org
gem5 is copyrighted software; use the --copyright option for details.

gem5 version 23.0.0.1
gem5 compiled Apr  6 2026 01:50:35
gem5 started Apr  6 2026 05:28:03
gem5 executing on b49ce2a326be, pid 133417
command line: /opt/gem5/build/X86/gem5.opt --outdir=/workspace/results_l3/1MB/policy0Config3/cam4 /workspace/configs/run_spec_l3.py --rp-type=DSBRP --l3-size=1MB --l3-assoc=16 --cpu-type=DerivO3CPU --cmd=./cam4_s_base.gem5-x86 --options= --mem-size=8GB --maxinst=250000000 --caches --l2cache --l1d_size=32kB --l1i_size=32kB --l1d_assoc=8 --l1i_assoc=8 --l2_size=256kB --l2_assoc=8 --checkpoint-restore=1 --checkpoint-dir=/workspace/checkpoints/cam4/m5out --restore-with-cpu=AtomicSimpleCPU --standard-switch=1 --warmup-insts=50000000 --dsb-enable-bypass=true --dsb-enable-aging=false --dsb-bypass-counter=3 --dsb-virtual-bypass-counter=3 --dsb-random-promotion=0 --dsb-minimum-bypass-counter=12

info: Standard input is not a terminal, disabling listeners.
Replacement policy: DSBRP
L1I size: 32kB, assoc: 8
L1D size: 32kB, assoc: 8
L2 size: 256kB, assoc: 8
L3 size: 1MB, L3 assoc: 16
Switch at instruction count:1
src/sim/simulate.cc:194: info: Entering event queue @ 25337984014000.  Starting simulation...
src/sim/power_state.cc:105: warn: PowerState: Already in the requested power state, request ignored
Switched CPUS @ tick 25337984015500
switching cpus
Switch at instruction count:50000000
src/sim/simulate.cc:194: info: Entering event queue @ 25337984015500.  Starting simulation...
[DSB @ 100000 calls] bc=0 isBypassOn=true| real=9626 virt=11229 notrack=79144 | touchRes=2736(eff=1000,ineff=1736) resetRes=496(ineff=161,eff=335) | bc++=1897 bc--=1335 inv=10068
[DSB @ 200000 calls] bc=0 isBypassOn=true| real=108782 virt=11328 notrack=79889 | touchRes=3678(eff=1937,ineff=1741) resetRes=562(ineff=226,eff=336) | bc++=1967 bc--=2273 inv=10583
[DSB @ 300000 calls] bc=0 isBypassOn=true| real=208782 virt=11328 notrack=79889 | touchRes=3678(eff=1937,ineff=1741) resetRes=562(ineff=226,eff=336) | bc++=1967 bc--=2273 inv=10583
[DSB @ 400000 calls] bc=0 isBypassOn=true| real=308782 virt=11328 notrack=79889 | touchRes=3678(eff=1937,ineff=1741) resetRes=562(ineff=226,eff=336) | bc++=1967 bc--=2273 inv=10583
[DSB @ 500000 calls] bc=0 isBypassOn=true| real=408782 virt=11328 notrack=79889 | touchRes=3678(eff=1937,ineff=1741) resetRes=562(ineff=226,eff=336) | bc++=1967 bc--=2273 inv=10583
[DSB @ 600000 calls] bc=0 isBypassOn=true| real=508782 virt=11328 notrack=79889 | touchRes=3678(eff=1937,ineff=1741) resetRes=562(ineff=226,eff=336) | bc++=1967 bc--=2273 inv=10583
[DSB @ 700000 calls] bc=0 isBypassOn=true| real=608782 virt=11328 notrack=79889 | touchRes=3678(eff=1937,ineff=1741) resetRes=562(ineff=226,eff=336) | bc++=1967 bc--=2273 inv=10583
[DSB @ 800000 calls] bc=0 isBypassOn=true| real=708782 virt=11328 notrack=79889 | touchRes=3678(eff=1937,ineff=1741) resetRes=562(ineff=226,eff=336) | bc++=1967 bc--=2273 inv=10583
[DSB @ 900000 calls] bc=0 isBypassOn=true| real=808782 virt=11328 notrack=79889 | touchRes=3678(eff=1937,ineff=1741) resetRes=562(ineff=226,eff=336) | bc++=1967 bc--=2273 inv=10583
[DSB @ 1000000 calls] bc=0 isBypassOn=true| real=891991 virt=13370 notrack=94638 | touchRes=4761(eff=2966,ineff=1795) resetRes=979(ineff=591,eff=388) | bc++=2386 bc--=3354 inv=13590
src/sim/simulate.cc:194: info: Entering event queue @ 25490046793500.  Starting simulation...
Switching CPUS @ tick 25490046793500
Simulation ends instruction count:250000000
switching cpus
**** REAL SIMULATION ****
src/sim/simulate.cc:194: info: Entering event queue @ 25490047089750.  Starting simulation...
[DSB @ 1100000 calls] bc=12 isBypassOn=false| real=931150 virt=21056 notrack=147793 | touchRes=9522(eff=6942,ineff=2580) resetRes=3794(ineff=2818,eff=976) | bc++=5398 bc--=7918 inv=26444
[DSB @ 1200000 calls] bc=10 isBypassOn=true| real=938974 virt=32519 notrack=228506 | touchRes=11092(eff=8222,ineff=2870) resetRes=4188(ineff=3002,eff=1186) | bc++=5872 bc--=9408 inv=36829
[DSB @ 1300000 calls] bc=10 isBypassOn=true| real=939075 virt=45137 notrack=315787 | touchRes=11092(eff=8222,ineff=2870) resetRes=4188(ineff=3002,eff=1186) | bc++=5872 bc--=9408 inv=47937
[DSB @ 1400000 calls] bc=10 isBypassOn=true| real=939173 virt=57722 notrack=403104 | touchRes=11092(eff=8222,ineff=2870) resetRes=4188(ineff=3002,eff=1186) | bc++=5872 bc--=9408 inv=58944
[DSB @ 1500000 calls] bc=10 isBypassOn=true| real=939269 virt=70373 notrack=490357 | touchRes=11092(eff=8222,ineff=2870) resetRes=4188(ineff=3002,eff=1186) | bc++=5872 bc--=9408 inv=70063
[DSB @ 1600000 calls] bc=10 isBypassOn=true| real=939378 virt=82707 notrack=577914 | touchRes=11092(eff=8222,ineff=2870) resetRes=4188(ineff=3002,eff=1186) | bc++=5872 bc--=9408 inv=81033
[DSB @ 1700000 calls] bc=10 isBypassOn=true| real=939470 virt=95144 notrack=665385 | touchRes=11092(eff=8222,ineff=2870) resetRes=4188(ineff=3002,eff=1186) | bc++=5872 bc--=9408 inv=91994
[DSB @ 1800000 calls] bc=10 isBypassOn=true| real=939563 virt=107453 notrack=752983 | touchRes=11092(eff=8222,ineff=2870) resetRes=4188(ineff=3002,eff=1186) | bc++=5872 bc--=9408 inv=102842
[DSB @ 1900000 calls] bc=10 isBypassOn=true| real=939677 virt=119879 notrack=840443 | touchRes=11092(eff=8222,ineff=2870) resetRes=4188(ineff=3002,eff=1186) | bc++=5872 bc--=9408 inv=113800
[DSB @ 2000000 calls] bc=10 isBypassOn=true| real=939773 virt=132323 notrack=927903 | touchRes=11092(eff=8222,ineff=2870) resetRes=4188(ineff=3002,eff=1186) | bc++=5872 bc--=9408 inv=124812
[DSB @ 2100000 calls] bc=6 isBypassOn=true| real=958129 virt=142486 notrack=999384 | touchRes=12210(eff=9161,ineff=3049) resetRes=4668(ineff=3311,eff=1357) | bc++=6360 bc--=10518 inv=136054
[DSB @ 2200000 calls] bc=12 isBypassOn=false| real=985867 virt=151471 notrack=1062661 | touchRes=15377(eff=11573,ineff=3804) resetRes=6624(ineff=4756,eff=1868) | bc++=8560 bc--=13441 inv=146674
[DSB @ 2300000 calls] bc=9 isBypassOn=true| real=993286 virt=163166 notrack=1143547 | touchRes=16588(eff=12729,ineff=3859) resetRes=6932(ineff=5002,eff=1930) | bc++=8861 bc--=14659 inv=158051
[DSB @ 2400000 calls] bc=9 isBypassOn=true| real=993463 virt=175755 notrack=1230781 | touchRes=16588(eff=12729,ineff=3859) resetRes=6932(ineff=5002,eff=1930) | bc++=8861 bc--=14659 inv=169201
[DSB @ 2500000 calls] bc=9 isBypassOn=true| real=993648 virt=188182 notrack=1318169 | touchRes=16588(eff=12729,ineff=3859) resetRes=6932(ineff=5002,eff=1930) | bc++=8861 bc--=14659 inv=180221
[DSB @ 2600000 calls] bc=9 isBypassOn=true| real=993859 virt=200624 notrack=1405516 | touchRes=16588(eff=12729,ineff=3859) resetRes=6932(ineff=5002,eff=1930) | bc++=8861 bc--=14659 inv=191280
[DSB @ 2700000 calls] bc=9 isBypassOn=true| real=994053 virt=213186 notrack=1492760 | touchRes=16588(eff=12729,ineff=3859) resetRes=6932(ineff=5002,eff=1930) | bc++=8861 bc--=14659 inv=202467
[DSB @ 2800000 calls] bc=9 isBypassOn=true| real=994230 virt=225442 notrack=1580327 | touchRes=16588(eff=12729,ineff=3859) resetRes=6932(ineff=5002,eff=1930) | bc++=8861 bc--=14659 inv=213296
[DSB @ 2900000 calls] bc=9 isBypassOn=true| real=994434 virt=237779 notrack=1667786 | touchRes=16588(eff=12729,ineff=3859) resetRes=6932(ineff=5002,eff=1930) | bc++=8861 bc--=14659 inv=224279
[DSB @ 3000000 calls] bc=9 isBypassOn=true| real=994618 virt=250289 notrack=1755092 | touchRes=16588(eff=12729,ineff=3859) resetRes=6932(ineff=5002,eff=1930) | bc++=8861 bc--=14659 inv=235405
[DSB @ 3100000 calls] bc=10 isBypassOn=true| real=994911 virt=262795 notrack=1842293 | touchRes=16673(eff=12731,ineff=3942) resetRes=6995(ineff=5004,eff=1991) | bc++=8946 bc--=14722 inv=246451
Exiting @ tick 25667503873500 because a thread reached the max instruction count
