warn: The `get_runtime_isa` function is deprecated. Please migrate away from using this function.
warn: The se.py script is deprecated. It will be removed in future releases of  gem5.
warn: The `get_runtime_isa` function is deprecated. Please migrate away from using this function.
Global frequency set at 1000000000000 ticks per second
src/base/statistics.hh:279: warn: One of the stats is a legacy stat. Legacy stat is a stat that does not belong to any statistics::Group. Legacy stat is deprecated.
src/base/remote_gdb.cc:418: warn: Sockets disabled, not accepting gdb connections
src/sim/process.cc:396: warn: Checkpoints for pipes, device drivers and sockets do not work.
gem5 Simulator System.  https://www.gem5.org
gem5 is copyrighted software; use the --copyright option for details.

gem5 version 23.0.0.1
gem5 compiled Apr  6 2026 01:50:35
gem5 started Apr  6 2026 03:47:54
gem5 executing on b49ce2a326be, pid 115765
command line: /opt/gem5/build/X86/gem5.opt --outdir=/workspace/results_l3/1MB/policy0Config2/wrf /workspace/configs/run_spec_l3.py --rp-type=DSBRP --l3-size=1MB --l3-assoc=16 --cpu-type=DerivO3CPU --cmd=./wrf_s_base.gem5-x86 --options= --mem-size=8GB --maxinst=250000000 --caches --l2cache --l1d_size=32kB --l1i_size=32kB --l1d_assoc=8 --l1i_assoc=8 --l2_size=256kB --l2_assoc=8 --checkpoint-restore=1 --checkpoint-dir=/workspace/checkpoints/wrf/m5out --restore-with-cpu=AtomicSimpleCPU --standard-switch=1 --warmup-insts=50000000 --dsb-enable-bypass=true --dsb-enable-aging=false --dsb-bypass-counter=6 --dsb-virtual-bypass-counter=3 --dsb-random-promotion=0 --dsb-minimum-bypass-counter=12

info: Standard input is not a terminal, disabling listeners.
Replacement policy: DSBRP
L1I size: 32kB, assoc: 8
L1D size: 32kB, assoc: 8
L2 size: 256kB, assoc: 8
L3 size: 1MB, L3 assoc: 16
Switch at instruction count:1
src/sim/simulate.cc:194: info: Entering event queue @ 27778733914000.  Starting simulation...
src/sim/simulate.cc:194: info: Entering event queue @ 27778733915500.  Starting simulation...
src/sim/power_state.cc:105: warn: PowerState: Already in the requested power state, request ignored
Switched CPUS @ tick 27778733915500
switching cpus
Switch at instruction count:50000000
src/sim/simulate.cc:194: info: Entering event queue @ 27778733916000.  Starting simulation...
[DSB @ 100000 calls] bc=0 isBypassOn=true| real=80281 virt=2452 notrack=17266 | touchRes=3188(eff=2127,ineff=1061) resetRes=43(ineff=2,eff=41) | bc++=1063 bc--=2168 inv=114
[DSB @ 200000 calls] bc=6 isBypassOn=true| real=127404 virt=9155 notrack=63440 | touchRes=3211(eff=2143,ineff=1068) resetRes=82(ineff=30,eff=52) | bc++=1098 bc--=2195 inv=6806
[DSB @ 300000 calls] bc=10 isBypassOn=true| real=138600 virt=20259 notrack=141140 | touchRes=3813(eff=2716,ineff=1097) resetRes=155(ineff=86,eff=69) | bc++=1183 bc--=2785 inv=17846
[DSB @ 400000 calls] bc=0 isBypassOn=true| real=215893 virt=23093 notrack=161013 | touchRes=5622(eff=4521,ineff=1101) resetRes=240(ineff=116,eff=124) | bc++=1217 bc--=4645 inv=22412
[DSB @ 500000 calls] bc=0 isBypassOn=true| real=315893 virt=23093 notrack=161013 | touchRes=5796(eff=4695,ineff=1101) resetRes=240(ineff=116,eff=124) | bc++=1217 bc--=4819 inv=22412
[DSB @ 600000 calls] bc=0 isBypassOn=true| real=415892 virt=23093 notrack=161014 | touchRes=5909(eff=4808,ineff=1101) resetRes=240(ineff=116,eff=124) | bc++=1217 bc--=4932 inv=22413
[DSB @ 700000 calls] bc=0 isBypassOn=true| real=468783 virt=29064 notrack=202152 | touchRes=6937(eff=5836,ineff=1101) resetRes=247(ineff=121,eff=126) | bc++=1222 bc--=5962 inv=30597
[DSB @ 800000 calls] bc=9 isBypassOn=true| real=544611 virt=32013 notrack=223375 | touchRes=7083(eff=5838,ineff=1245) resetRes=454(ineff=236,eff=218) | bc++=1481 bc--=6056 inv=33661
[DSB @ 900000 calls] bc=0 isBypassOn=true| real=640080 virt=32608 notrack=227311 | touchRes=8020(eff=6735,ineff=1285) resetRes=532(ineff=266,eff=266) | bc++=1551 bc--=7001 inv=34271
src/sim/simulate.cc:194: info: Entering event queue @ 27944248434500.  Starting simulation...
Switching CPUS @ tick 27944248434500
Simulation ends instruction count:250000000
switching cpus
**** REAL SIMULATION ****
src/sim/simulate.cc:194: info: Entering event queue @ 27944248639500.  Starting simulation...
[DSB @ 1000000 calls] bc=0 isBypassOn=true| real=727041 virt=34225 notrack=238733 | touchRes=8649(eff=7364,ineff=1285) resetRes=552(ineff=276,eff=276) | bc++=1561 bc--=7640 inv=36491
[DSB @ 1100000 calls] bc=0 isBypassOn=true| real=827039 virt=34226 notrack=238734 | touchRes=9048(eff=7763,ineff=1285) resetRes=552(ineff=276,eff=276) | bc++=1561 bc--=8039 inv=36492
[DSB @ 1200000 calls] bc=8 isBypassOn=true| real=914685 virt=35685 notrack=249629 | touchRes=9080(eff=7788,ineff=1292) resetRes=649(ineff=361,eff=288) | bc++=1653 bc--=8076 inv=38517
[DSB @ 1300000 calls] bc=6 isBypassOn=true| real=987230 virt=39041 notrack=273728 | touchRes=10731(eff=9439,ineff=1292) resetRes=668(ineff=371,eff=297) | bc++=1663 bc--=9736 inv=43206
[DSB @ 1400000 calls] bc=0 isBypassOn=true| real=1076953 virt=40295 notrack=282751 | touchRes=12664(eff=11370,ineff=1294) resetRes=680(ineff=372,eff=308) | bc++=1666 bc--=11678 inv=45562
[DSB @ 1500000 calls] bc=0 isBypassOn=true| real=1169955 virt=41190 notrack=288854 | touchRes=13398(eff=12098,ineff=1300) resetRes=700(ineff=383,eff=317) | bc++=1683 bc--=12415 inv=47561
[DSB @ 1600000 calls] bc=0 isBypassOn=true| real=1256930 virt=42811 notrack=300258 | touchRes=15328(eff=14020,ineff=1308) resetRes=723(ineff=401,eff=322) | bc++=1709 bc--=14342 inv=51303
[DSB @ 1700000 calls] bc=0 isBypassOn=true| real=1330503 virt=46086 notrack=323410 | touchRes=16354(eff=15046,ineff=1308) resetRes=754(ineff=419,eff=335) | bc++=1727 bc--=15381 inv=55084
[DSB @ 1800000 calls] bc=5 isBypassOn=true| real=1383304 virt=51990 notrack=364705 | touchRes=17239(eff=15918,ineff=1321) resetRes=835(ineff=470,eff=365) | bc++=1791 bc--=16283 inv=68635
[DSB @ 1900000 calls] bc=0 isBypassOn=true| real=1475963 virt=52896 notrack=371140 | touchRes=19866(eff=18545,ineff=1321) resetRes=844(ineff=474,eff=370) | bc++=1795 bc--=18915 inv=70943
[DSB @ 2000000 calls] bc=0 isBypassOn=true| real=1564624 virt=54368 notrack=381007 | touchRes=21876(eff=20552,ineff=1324) resetRes=939(ineff=556,eff=383) | bc++=1880 bc--=20935 inv=76112
[DSB @ 2100000 calls] bc=0 isBypassOn=true| real=1635802 virt=57877 notrack=406320 | touchRes=22196(eff=20870,ineff=1326) resetRes=962(ineff=566,eff=396) | bc++=1892 bc--=21266 inv=80454
[DSB @ 2200000 calls] bc=12 isBypassOn=false| real=1677336 virt=65213 notrack=457450 | touchRes=23010(eff=21683,ineff=1327) resetRes=993(ineff=595,eff=398) | bc++=1922 bc--=22081 inv=88622
[DSB @ 2300000 calls] bc=9 isBypassOn=true| real=1677459 virt=77619 notrack=544921 | touchRes=23012(eff=21683,ineff=1329) resetRes=997(ineff=595,eff=402) | bc++=1924 bc--=22085 inv=99529
[DSB @ 2400000 calls] bc=0 isBypassOn=true| real=1700763 virt=87190 notrack=612046 | touchRes=23880(eff=22551,ineff=1329) resetRes=1003(ineff=595,eff=408) | bc++=1924 bc--=22959 inv=108558
[DSB @ 2500000 calls] bc=0 isBypassOn=true| real=1800763 virt=87190 notrack=612046 | touchRes=23880(eff=22551,ineff=1329) resetRes=1003(ineff=595,eff=408) | bc++=1924 bc--=22959 inv=108558
[DSB @ 2600000 calls] bc=11 isBypassOn=true| real=1835361 virt=95297 notrack=669341 | touchRes=24815(eff=23480,ineff=1335) resetRes=1087(ineff=657,eff=430) | bc++=1992 bc--=23910 inv=119024
[DSB @ 2700000 calls] bc=11 isBypassOn=true| real=1835406 virt=107911 notrack=756682 | touchRes=24815(eff=23480,ineff=1335) resetRes=1087(ineff=657,eff=430) | bc++=1992 bc--=23910 inv=130041
[DSB @ 2800000 calls] bc=0 isBypassOn=true| real=1857249 virt=117646 notrack=825104 | touchRes=26365(eff=25030,ineff=1335) resetRes=1100(ineff=661,eff=439) | bc++=1996 bc--=25469 inv=140158
[DSB @ 2900000 calls] bc=0 isBypassOn=true| real=1950959 virt=118472 notrack=830568 | touchRes=27462(eff=26127,ineff=1335) resetRes=1133(ineff=677,eff=456) | bc++=2012 bc--=26583 inv=141656
[DSB @ 3000000 calls] bc=0 isBypassOn=true| real=2048534 virt=118778 notrack=832687 | touchRes=28605(eff=27270,ineff=1335) resetRes=1135(ineff=679,eff=456) | bc++=2014 bc--=27726 inv=142823
[DSB @ 3100000 calls] bc=0 isBypassOn=true| real=2141587 virt=119679 notrack=838733 | touchRes=29742(eff=28407,ineff=1335) resetRes=1142(ineff=684,eff=458) | bc++=2019 bc--=28865 inv=145514
[DSB @ 3200000 calls] bc=0 isBypassOn=true| real=2239570 virt=119907 notrack=840522 | touchRes=30843(eff=29508,ineff=1335) resetRes=1145(ineff=685,eff=460) | bc++=2020 bc--=29968 inv=146721
[DSB @ 3300000 calls] bc=0 isBypassOn=true| real=2334649 virt=120492 notrack=844858 | touchRes=32968(eff=31630,ineff=1338) resetRes=1175(ineff=710,eff=465) | bc++=2048 bc--=32095 inv=149239
[DSB @ 3400000 calls] bc=0 isBypassOn=true| real=2423573 virt=121921 notrack=854505 | touchRes=33659(eff=32292,ineff=1367) resetRes=1256(ineff=760,eff=496) | bc++=2127 bc--=32788 inv=151506
Exiting @ tick 28116475202000 because a thread reached the max instruction count
