warn: The `get_runtime_isa` function is deprecated. Please migrate away from using this function.
warn: The se.py script is deprecated. It will be removed in future releases of  gem5.
warn: The `get_runtime_isa` function is deprecated. Please migrate away from using this function.
Global frequency set at 1000000000000 ticks per second
src/base/statistics.hh:279: warn: One of the stats is a legacy stat. Legacy stat is a stat that does not belong to any statistics::Group. Legacy stat is deprecated.
src/base/remote_gdb.cc:418: warn: Sockets disabled, not accepting gdb connections
src/sim/process.cc:396: warn: Checkpoints for pipes, device drivers and sockets do not work.
gem5 Simulator System.  https://www.gem5.org
gem5 is copyrighted software; use the --copyright option for details.

gem5 version 23.0.0.1
gem5 compiled Apr  6 2026 01:50:35
gem5 started Apr  6 2026 14:32:54
gem5 executing on b49ce2a326be, pid 229272
command line: /opt/gem5/build/X86/gem5.opt --outdir=/workspace/results_l3/2MB/policy1Config2/xalancbmk /workspace/configs/run_spec_l3.py --rp-type=DSBRP --l3-size=2MB --l3-assoc=16 --cpu-type=DerivO3CPU --cmd=./xalancbmk_s_base.gem5-x86 '--options=-v t5.xml xalanc.xsl' --mem-size=8GB --maxinst=250000000 --caches --l2cache --l1d_size=32kB --l1i_size=32kB --l1d_assoc=8 --l1i_assoc=8 --l2_size=256kB --l2_assoc=8 --checkpoint-restore=1 --checkpoint-dir=/workspace/checkpoints/xalancbmk/m5out --restore-with-cpu=AtomicSimpleCPU --standard-switch=1 --warmup-insts=50000000 --dsb-enable-bypass=true --dsb-enable-aging=true --dsb-bypass-counter=6 --dsb-virtual-bypass-counter=3 --dsb-random-promotion=0 --dsb-minimum-bypass-counter=12

info: Standard input is not a terminal, disabling listeners.
Replacement policy: DSBRP
L1I size: 32kB, assoc: 8
L1D size: 32kB, assoc: 8
L2 size: 256kB, assoc: 8
L3 size: 2MB, L3 assoc: 16
Switch at instruction count:1
src/sim/simulate.cc:194: info: Entering event queue @ 27962974663500.  Starting simulation...
src/sim/simulate.cc:194: info: Entering event queue @ 27962974665000.  Starting simulation...
src/sim/power_state.cc:105: warn: PowerState: Already in the requested power state, request ignored
Switched CPUS @ tick 27962974665000
switching cpus
Switch at instruction count:50000000
src/sim/simulate.cc:194: info: Entering event queue @ 27962974666000.  Starting simulation...
[DSB @ 100000 calls] bc=12 isBypassOn=false| real=28292 virt=8918 notrack=62789 | touchRes=9712(eff=2948,ineff=6764) resetRes=548(ineff=234,eff=314) | bc++=6998 bc--=3262 inv=2140
[DSB @ 200000 calls] bc=12 isBypassOn=false| real=63784 virt=16803 notrack=119412 | touchRes=26218(eff=14274,ineff=11944) resetRes=2022(ineff=750,eff=1272) | bc++=12694 bc--=15546 inv=4825
[DSB @ 300000 calls] bc=12 isBypassOn=false| real=89797 virt=26014 notrack=184188 | touchRes=41800(eff=23435,ineff=18365) resetRes=3095(ineff=1026,eff=2069) | bc++=19391 bc--=25504 inv=5426
src/sim/simulate.cc:194: info: Entering event queue @ 28107648954500.  Starting simulation...
Switching CPUS @ tick 28107648954500
Simulation ends instruction count:250000000
switching cpus
**** REAL SIMULATION ****
src/sim/simulate.cc:194: info: Entering event queue @ 28107649146750.  Starting simulation...
[DSB @ 400000 calls] bc=0 isBypassOn=true| real=113201 virt=35587 notrack=251211 | touchRes=52682(eff=27266,ineff=25416) resetRes=4501(ineff=1418,eff=3083) | bc++=26834 bc--=30349 inv=7111
[DSB @ 500000 calls] bc=12 isBypassOn=false| real=124713 virt=46509 notrack=328777 | touchRes=62153(eff=28428,ineff=33725) resetRes=5261(ineff=1701,eff=3560) | bc++=35426 bc--=31988 inv=9762
[DSB @ 600000 calls] bc=12 isBypassOn=false| real=160283 virt=54569 notrack=385147 | touchRes=76922(eff=37647,ineff=39275) resetRes=6340(ineff=2066,eff=4274) | bc++=41341 bc--=41921 inv=10789
[DSB @ 700000 calls] bc=0 isBypassOn=true| real=230760 virt=58300 notrack=410939 | touchRes=106994(eff=65392,ineff=41602) resetRes=8051(ineff=2994,eff=5057) | bc++=44596 bc--=70449 inv=12349
[DSB @ 800000 calls] bc=12 isBypassOn=false| real=253057 virt=68095 notrack=478847 | touchRes=117683(eff=68970,ineff=48713) resetRes=8806(ineff=3315,eff=5491) | bc++=52028 bc--=74461 inv=13944
[DSB @ 900000 calls] bc=1 isBypassOn=true| real=292715 virt=75594 notrack=531690 | touchRes=131536(eff=77838,ineff=53698) resetRes=10691(ineff=4049,eff=6642) | bc++=57747 bc--=84480 inv=16618
[DSB @ 1000000 calls] bc=12 isBypassOn=false| real=319867 virt=84659 notrack=595473 | touchRes=142772(eff=82901,ineff=59871) resetRes=12064(ineff=4277,eff=7787) | bc++=64148 bc--=90688 inv=19774
[DSB @ 1100000 calls] bc=0 isBypassOn=true| real=350011 virt=93336 notrack=656652 | touchRes=154760(eff=89051,ineff=65709) resetRes=13782(ineff=4960,eff=8822) | bc++=70669 bc--=97873 inv=21448
[DSB @ 1200000 calls] bc=12 isBypassOn=false| real=390654 virt=100775 notrack=708570 | touchRes=168333(eff=97439,ineff=70894) resetRes=14594(ineff=5308,eff=9286) | bc++=76202 bc--=106725 inv=24523
[DSB @ 1300000 calls] bc=0 isBypassOn=true| real=423965 virt=109091 notrack=766943 | touchRes=179211(eff=102544,ineff=76667) resetRes=16078(ineff=5608,eff=10470) | bc++=82275 bc--=113014 inv=27048
[DSB @ 1400000 calls] bc=12 isBypassOn=false| real=464431 virt=116441 notrack=819127 | touchRes=190033(eff=108150,ineff=81883) resetRes=17118(ineff=6144,eff=10974) | bc++=88027 bc--=119124 inv=31388
[DSB @ 1500000 calls] bc=0 isBypassOn=true| real=470433 virt=128156 notrack=901410 | touchRes=199676(eff=109238,ineff=90438) resetRes=18505(ineff=6359,eff=12146) | bc++=96797 bc--=121384 inv=32639
[DSB @ 1600000 calls] bc=12 isBypassOn=false| real=501143 virt=136730 notrack=962126 | touchRes=209875(eff=113449,ineff=96426) resetRes=19108(ineff=6441,eff=12667) | bc++=102867 bc--=126116 inv=36214
[DSB @ 1700000 calls] bc=0 isBypassOn=true| real=535482 virt=144970 notrack=1019547 | touchRes=221376(eff=118886,ineff=102490) resetRes=20022(ineff=6496,eff=13526) | bc++=108986 bc--=132412 inv=38915
[DSB @ 1800000 calls] bc=12 isBypassOn=false| real=564851 virt=153721 notrack=1081427 | touchRes=235372(eff=126750,ineff=108622) resetRes=21931(ineff=7563,eff=14368) | bc++=116185 bc--=141118 inv=40987
[DSB @ 1900000 calls] bc=12 isBypassOn=false| real=569692 virt=165534 notrack=1164773 | touchRes=244429(eff=127790,ineff=116639) resetRes=23432(ineff=8031,eff=15401) | bc++=124670 bc--=143191 inv=42732
[DSB @ 2000000 calls] bc=6 isBypassOn=true| real=624000 virt=171209 notrack=1204790 | touchRes=259964(eff=139114,ineff=120850) resetRes=24745(ineff=8708,eff=16037) | bc++=129558 bc--=155151 inv=44747
Exiting @ tick 28395097485500 because a thread reached the max instruction count
