warn: The `get_runtime_isa` function is deprecated. Please migrate away from using this function.
warn: The se.py script is deprecated. It will be removed in future releases of  gem5.
warn: The `get_runtime_isa` function is deprecated. Please migrate away from using this function.
Global frequency set at 1000000000000 ticks per second
src/base/statistics.hh:279: warn: One of the stats is a legacy stat. Legacy stat is a stat that does not belong to any statistics::Group. Legacy stat is deprecated.
src/base/remote_gdb.cc:418: warn: Sockets disabled, not accepting gdb connections
src/sim/process.cc:396: warn: Checkpoints for pipes, device drivers and sockets do not work.
gem5 Simulator System.  https://www.gem5.org
gem5 is copyrighted software; use the --copyright option for details.

gem5 version 23.0.0.1
gem5 compiled Apr  6 2026 01:50:35
gem5 started Apr  6 2026 10:16:45
gem5 executing on b49ce2a326be, pid 181362
command line: /opt/gem5/build/X86/gem5.opt --outdir=/workspace/results_l3/2MB/policy0Config1/imagick /workspace/configs/run_spec_l3.py --rp-type=DSBRP --l3-size=2MB --l3-assoc=16 --cpu-type=DerivO3CPU --cmd=./imagick_s_base.gem5-x86 '--options=-limit disk 0 refspeed_input.tga -resize 817% -rotate -2.76 -shave 540x375 -alpha remove -auto-level -contrast-stretch 1x1% -colorspace Lab -channel R -equalize +channel -colorspace sRGB -define histogram:unique-colors=false -adaptive-blur 0x5 -despeckle -auto-gamma -adaptive-sharpen 55 -enhance -brightness-contrast 10x10 -resize 30% refspeed_output.tga' --mem-size=8GB --maxinst=250000000 --caches --l2cache --l1d_size=32kB --l1i_size=32kB --l1d_assoc=8 --l1i_assoc=8 --l2_size=256kB --l2_assoc=8 --checkpoint-restore=1 --checkpoint-dir=/workspace/checkpoints/imagick/m5out --restore-with-cpu=AtomicSimpleCPU --standard-switch=1 --warmup-insts=50000000 --dsb-enable-bypass=true --dsb-enable-aging=false --dsb-bypass-counter=6 --dsb-virtual-bypass-counter=4 --dsb-random-promotion=0 --dsb-minimum-bypass-counter=8

info: Standard input is not a terminal, disabling listeners.
Replacement policy: DSBRP
L1I size: 32kB, assoc: 8
L1D size: 32kB, assoc: 8
L2 size: 256kB, assoc: 8
L3 size: 2MB, L3 assoc: 16
Switch at instruction count:1
src/sim/simulate.cc:194: info: Entering event queue @ 26455902910500.  Starting simulation...
src/sim/power_state.cc:105: warn: PowerState: Already in the requested power state, request ignored
Switched CPUS @ tick 26455902912000
switching cpus
Switch at instruction count:50000000
src/sim/simulate.cc:194: info: Entering event queue @ 26455902912000.  Starting simulation...
src/sim/simulate.cc:194: info: Entering event queue @ 26545965235500.  Starting simulation...
Switching CPUS @ tick 26545965235500
Simulation ends instruction count:250000000
switching cpus
**** REAL SIMULATION ****
src/sim/simulate.cc:194: info: Entering event queue @ 26545965494250.  Starting simulation...
[DSB @ 100000 calls] bc=8 isBypassOn=false| real=16556 virt=5220 notrack=78223 | touchRes=5693(eff=3081,ineff=2612) resetRes=1826(ineff=1573,eff=253) | bc++=4185 bc--=3334 inv=6151
[DSB @ 200000 calls] bc=5 isBypassOn=true| real=37516 virt=10135 notrack=152348 | touchRes=11794(eff=7823,ineff=3971) resetRes=7068(ineff=6284,eff=784) | bc++=10255 bc--=8607 inv=14458
[DSB @ 300000 calls] bc=8 isBypassOn=false| real=57932 virt=15249 notrack=226818 | touchRes=18878(eff=13324,ineff=5554) resetRes=12844(ineff=11465,eff=1379) | bc++=17019 bc--=14703 inv=21527
[DSB @ 400000 calls] bc=0 isBypassOn=true| real=76460 virt=20485 notrack=303054 | touchRes=25339(eff=17904,ineff=7435) resetRes=17787(ineff=15759,eff=2028) | bc++=23194 bc--=19932 inv=28446
Exiting @ tick 26641516836000 because a thread reached the max instruction count
