warn: The `get_runtime_isa` function is deprecated. Please migrate away from using this function.
warn: The se.py script is deprecated. It will be removed in future releases of  gem5.
warn: The `get_runtime_isa` function is deprecated. Please migrate away from using this function.
Global frequency set at 1000000000000 ticks per second
src/base/statistics.hh:279: warn: One of the stats is a legacy stat. Legacy stat is a stat that does not belong to any statistics::Group. Legacy stat is deprecated.
src/base/remote_gdb.cc:418: warn: Sockets disabled, not accepting gdb connections
src/sim/process.cc:396: warn: Checkpoints for pipes, device drivers and sockets do not work.
gem5 Simulator System.  https://www.gem5.org
gem5 is copyrighted software; use the --copyright option for details.

gem5 version 23.0.0.1
gem5 compiled Apr  6 2026 01:50:35
gem5 started Apr  6 2026 02:31:26
gem5 executing on b49ce2a326be, pid 100781
command line: /opt/gem5/build/X86/gem5.opt --outdir=/workspace/results_l3/1MB/policy0Config1/lbm /workspace/configs/run_spec_l3.py --rp-type=DSBRP --l3-size=1MB --l3-assoc=16 --cpu-type=DerivO3CPU --cmd=./lbm_s_base.gem5-x86 '--options=2000 reference.dat 0 0 200_200_260_ldc.of' --mem-size=8GB --maxinst=250000000 --caches --l2cache --l1d_size=32kB --l1i_size=32kB --l1d_assoc=8 --l1i_assoc=8 --l2_size=256kB --l2_assoc=8 --checkpoint-restore=1 --checkpoint-dir=/workspace/checkpoints/lbm/m5out --restore-with-cpu=AtomicSimpleCPU --standard-switch=1 --warmup-insts=50000000 --dsb-enable-bypass=true --dsb-enable-aging=false --dsb-bypass-counter=6 --dsb-virtual-bypass-counter=4 --dsb-random-promotion=0 --dsb-minimum-bypass-counter=8

info: Standard input is not a terminal, disabling listeners.
Replacement policy: DSBRP
L1I size: 32kB, assoc: 8
L1D size: 32kB, assoc: 8
L2 size: 256kB, assoc: 8
L3 size: 1MB, L3 assoc: 16
Switch at instruction count:1
src/sim/simulate.cc:194: info: Entering event queue @ 25728322212500.  Starting simulation...
src/sim/simulate.cc:194: info: Entering event queue @ 25728322214000.  Starting simulation...
src/sim/power_state.cc:105: warn: PowerState: Already in the requested power state, request ignored
Switched CPUS @ tick 25728322214000
switching cpus
Switch at instruction count:50000000
src/sim/simulate.cc:194: info: Entering event queue @ 25728322215000.  Starting simulation...
[DSB @ 100000 calls] bc=6 isBypassOn=true| real=35590 virt=3978 notrack=60431 | touchRes=2414(eff=1684,ineff=730) resetRes=1166(ineff=995,eff=171) | bc++=1725 bc--=1855 inv=12931
[DSB @ 200000 calls] bc=8 isBypassOn=false| real=78818 virt=7495 notrack=113686 | touchRes=3480(eff=2656,ineff=824) resetRes=2492(ineff=2159,eff=333) | bc++=2983 bc--=2989 inv=29980
[DSB @ 300000 calls] bc=0 isBypassOn=true| real=118556 virt=11217 notrack=170226 | touchRes=4512(eff=3590,ineff=922) resetRes=3778(ineff=3312,eff=466) | bc++=4234 bc--=4056 inv=47234
[DSB @ 400000 calls] bc=8 isBypassOn=false| real=160910 virt=14904 notrack=224185 | touchRes=5572(eff=4562,ineff=1010) resetRes=5130(ineff=4504,eff=626) | bc++=5514 bc--=5188 inv=64616
[DSB @ 500000 calls] bc=1 isBypassOn=true| real=203298 virt=18528 notrack=278173 | touchRes=6659(eff=5548,ineff=1111) resetRes=6450(ineff=5670,eff=780) | bc++=6781 bc--=6328 inv=81391
[DSB @ 600000 calls] bc=3 isBypassOn=true| real=243514 virt=22324 notrack=334161 | touchRes=7673(eff=6454,ineff=1219) resetRes=7770(ineff=6847,eff=923) | bc++=8066 bc--=7377 inv=98993
[DSB @ 700000 calls] bc=8 isBypassOn=false| real=286701 virt=25960 notrack=387338 | touchRes=8753(eff=7448,ineff=1305) resetRes=9096(ineff=8023,eff=1073) | bc++=9328 bc--=8521 inv=116185
[DSB @ 800000 calls] bc=0 isBypassOn=true| real=328120 virt=29572 notrack=442307 | touchRes=9810(eff=8410,ineff=1400) resetRes=10434(ineff=9189,eff=1245) | bc++=10589 bc--=9655 inv=133010
[DSB @ 900000 calls] bc=8 isBypassOn=false| real=369518 virt=33157 notrack=497324 | touchRes=10834(eff=9357,ineff=1477) resetRes=11812(ineff=10402,eff=1410) | bc++=11879 bc--=10767 inv=150303
[DSB @ 1000000 calls] bc=8 isBypassOn=false| real=410889 virt=36768 notrack=552342 | touchRes=11896(eff=10300,ineff=1596) resetRes=13078(ineff=11502,eff=1576) | bc++=13098 bc--=11876 inv=167252
[DSB @ 1100000 calls] bc=0 isBypassOn=true| real=451844 virt=40441 notrack=607714 | touchRes=12930(eff=11252,ineff=1678) resetRes=14420(ineff=12699,eff=1721) | bc++=14377 bc--=12973 inv=184512
[DSB @ 1200000 calls] bc=8 isBypassOn=false| real=494095 virt=43929 notrack=661975 | touchRes=14014(eff=12244,ineff=1770) resetRes=15744(ineff=13865,eff=1879) | bc++=15635 bc--=14123 inv=201586
[DSB @ 1300000 calls] bc=0 isBypassOn=true| real=535856 virt=47575 notrack=716568 | touchRes=15044(eff=13174,ineff=1870) resetRes=17056(ineff=15044,eff=2012) | bc++=16914 bc--=15186 inv=218427
[DSB @ 1400000 calls] bc=8 isBypassOn=false| real=576642 virt=51265 notrack=772092 | touchRes=16050(eff=14083,ineff=1967) resetRes=18377(ineff=16204,eff=2173) | bc++=18171 bc--=16256 inv=235948
[DSB @ 1500000 calls] bc=0 isBypassOn=true| real=619688 virt=54791 notrack=825520 | touchRes=17131(eff=15067,ineff=2064) resetRes=19717(ineff=17388,eff=2329) | bc++=19452 bc--=17396 inv=252733
[DSB @ 1600000 calls] bc=0 isBypassOn=true| real=659839 virt=58489 notrack=881671 | touchRes=18185(eff=16019,ineff=2166) resetRes=21046(ineff=18573,eff=2473) | bc++=20739 bc--=18492 inv=270224
[DSB @ 1700000 calls] bc=8 isBypassOn=false| real=702086 virt=62076 notrack=935837 | touchRes=19244(eff=16989,ineff=2255) resetRes=22360(ineff=19732,eff=2628) | bc++=21987 bc--=19617 inv=287437
[DSB @ 1800000 calls] bc=0 isBypassOn=true| real=744237 virt=65610 notrack=990152 | touchRes=20288(eff=17938,ineff=2350) resetRes=23698(ineff=20920,eff=2778) | bc++=23270 bc--=20716 inv=304439
[DSB @ 1900000 calls] bc=8 isBypassOn=false| real=784177 virt=69370 notrack=1046452 | touchRes=21295(eff=18846,ineff=2449) resetRes=25019(ineff=22086,eff=2933) | bc++=24535 bc--=21779 inv=321934
src/sim/simulate.cc:194: info: Entering event queue @ 25957405438500.  Starting simulation...
Switching CPUS @ tick 25957405438500
Simulation ends instruction count:250000000
switching cpus
**** REAL SIMULATION ****
src/sim/simulate.cc:194: info: Entering event queue @ 25957405502250.  Starting simulation...
[DSB @ 2000000 calls] bc=8 isBypassOn=false| real=826831 virt=73025 notrack=1100143 | touchRes=22352(eff=19808,ineff=2544) resetRes=26316(ineff=23226,eff=3090) | bc++=25770 bc--=22898 inv=338866
[DSB @ 2100000 calls] bc=0 isBypassOn=true| real=868336 virt=76724 notrack=1154939 | touchRes=23409(eff=20779,ineff=2630) resetRes=27666(ineff=24430,eff=3236) | bc++=27060 bc--=24015 inv=356098
[DSB @ 2200000 calls] bc=8 isBypassOn=false| real=910234 virt=80338 notrack=1209427 | touchRes=24455(eff=21737,ineff=2718) resetRes=28997(ineff=25608,eff=3389) | bc++=28326 bc--=25126 inv=373397
[DSB @ 2300000 calls] bc=2 isBypassOn=true| real=951823 virt=83900 notrack=1264276 | touchRes=25539(eff=22727,ineff=2812) resetRes=30285(ineff=26749,eff=3536) | bc++=29561 bc--=26263 inv=390340
[DSB @ 2400000 calls] bc=0 isBypassOn=true| real=992897 virt=87411 notrack=1319691 | touchRes=26591(eff=23689,ineff=2902) resetRes=31617(ineff=27919,eff=3698) | bc++=30821 bc--=27387 inv=407623
[DSB @ 2500000 calls] bc=8 isBypassOn=false| real=1036001 virt=90932 notrack=1373066 | touchRes=27692(eff=24712,ineff=2980) resetRes=32959(ineff=29115,eff=3844) | bc++=32095 bc--=28556 inv=424827
[DSB @ 2600000 calls] bc=2 isBypassOn=true| real=1078276 virt=94588 notrack=1427135 | touchRes=28774(eff=25699,ineff=3075) resetRes=34253(ineff=30255,eff=3998) | bc++=33330 bc--=29697 inv=441718
[DSB @ 2700000 calls] bc=0 isBypassOn=true| real=1118588 virt=98299 notrack=1483112 | touchRes=29812(eff=26644,ineff=3168) resetRes=35590(ineff=31435,eff=4155) | bc++=34603 bc--=30799 inv=459135
[DSB @ 2800000 calls] bc=8 isBypassOn=false| real=1160459 virt=101931 notrack=1537609 | touchRes=30855(eff=27596,ineff=3259) resetRes=36897(ineff=32584,eff=4313) | bc++=35843 bc--=31909 inv=476491
[DSB @ 2900000 calls] bc=1 isBypassOn=true| real=1202029 virt=105614 notrack=1592356 | touchRes=31934(eff=28574,ineff=3360) resetRes=38191(ineff=33718,eff=4473) | bc++=37078 bc--=33047 inv=493441
[DSB @ 3000000 calls] bc=0 isBypassOn=true| real=1243098 virt=109322 notrack=1647579 | touchRes=33004(eff=29542,ineff=3462) resetRes=39564(ineff=34916,eff=4648) | bc++=38378 bc--=34190 inv=510740
[DSB @ 3100000 calls] bc=8 isBypassOn=false| real=1284853 virt=112953 notrack=1702193 | touchRes=34052(eff=30506,ineff=3546) resetRes=40926(ineff=36106,eff=4820) | bc++=39652 bc--=35326 inv=528080
[DSB @ 3200000 calls] bc=8 isBypassOn=false| real=1328001 virt=116393 notrack=1755605 | touchRes=35182(eff=31546,ineff=3636) resetRes=42266(ineff=37285,eff=4981) | bc++=40921 bc--=36527 inv=545031
[DSB @ 3300000 calls] bc=0 isBypassOn=true| real=1369408 virt=120119 notrack=1810472 | touchRes=36235(eff=32502,ineff=3733) resetRes=43610(ineff=38465,eff=5145) | bc++=42198 bc--=37647 inv=562069
[DSB @ 3400000 calls] bc=2 isBypassOn=true| real=1411329 virt=123750 notrack=1864920 | touchRes=37342(eff=33523,ineff=3819) resetRes=44975(ineff=39679,eff=5296) | bc++=43498 bc--=38819 inv=579371
[DSB @ 3500000 calls] bc=8 isBypassOn=false| real=1453845 virt=127368 notrack=1918786 | touchRes=38437(eff=34518,ineff=3919) resetRes=46284(ineff=40843,eff=5441) | bc++=44762 bc--=39959 inv=596599
[DSB @ 3600000 calls] bc=0 isBypassOn=true| real=1496324 virt=130956 notrack=1972719 | touchRes=39524(eff=35509,ineff=4015) resetRes=47627(ineff=42027,eff=5600) | bc++=46042 bc--=41109 inv=613466
[DSB @ 3700000 calls] bc=8 isBypassOn=false| real=1536027 virt=134766 notrack=2029206 | touchRes=40541(eff=36427,ineff=4114) resetRes=48938(ineff=43170,eff=5768) | bc++=47284 bc--=42195 inv=630942
[DSB @ 3800000 calls] bc=0 isBypassOn=true| real=1577259 virt=138400 notrack=2084340 | touchRes=41603(eff=37397,ineff=4206) resetRes=50239(ineff=44321,eff=5918) | bc++=48527 bc--=43315 inv=647775
[DSB @ 3900000 calls] bc=0 isBypassOn=true| real=1617933 virt=142076 notrack=2139990 | touchRes=42669(eff=38379,ineff=4290) resetRes=51597(ineff=45507,eff=6090) | bc++=49797 bc--=44469 inv=665155
[DSB @ 4000000 calls] bc=8 isBypassOn=false| real=1660251 virt=145676 notrack=2194072 | touchRes=43720(eff=39334,ineff=4386) resetRes=52918(ineff=46663,eff=6255) | bc++=51049 bc--=45589 inv=682455
[DSB @ 4100000 calls] bc=0 isBypassOn=true| real=1701563 virt=149396 notrack=2249040 | touchRes=44799(eff=40314,ineff=4485) resetRes=54216(ineff=47801,eff=6415) | bc++=52286 bc--=46729 inv=699413
[DSB @ 4200000 calls] bc=0 isBypassOn=true| real=1742202 virt=153039 notrack=2304758 | touchRes=45835(eff=41256,ineff=4579) resetRes=55554(ineff=48982,eff=6572) | bc++=53561 bc--=47828 inv=716785
[DSB @ 4300000 calls] bc=8 isBypassOn=false| real=1783710 virt=156709 notrack=2359580 | touchRes=46896(eff=42218,ineff=4678) resetRes=56848(ineff=50134,eff=6714) | bc++=54812 bc--=48932 inv=734053
[DSB @ 4400000 calls] bc=0 isBypassOn=true| real=1825722 virt=160206 notrack=2414071 | touchRes=47969(eff=43185,ineff=4784) resetRes=58117(ineff=51262,eff=6855) | bc++=56046 bc--=50040 inv=750930
[DSB @ 4500000 calls] bc=8 isBypassOn=false| real=1863629 virt=164107 notrack=2472263 | touchRes=48943(eff=44032,ineff=4911) resetRes=59365(ineff=52366,eff=6999) | bc++=57277 bc--=51031 inv=768536
[DSB @ 4600000 calls] bc=0 isBypassOn=true| real=1907023 virt=167601 notrack=2525375 | touchRes=50057(eff=45050,ineff=5007) resetRes=60707(ineff=53544,eff=7163) | bc++=58551 bc--=52213 inv=785218
[DSB @ 4700000 calls] bc=1 isBypassOn=true| real=1948229 virt=171257 notrack=2580513 | touchRes=51104(eff=46002,ineff=5102) resetRes=62090(ineff=54755,eff=7335) | bc++=59857 bc--=53337 inv=802613
[DSB @ 4800000 calls] bc=8 isBypassOn=false| real=1989806 virt=174974 notrack=2635219 | touchRes=52196(eff=46983,ineff=5213) resetRes=63417(ineff=55923,eff=7494) | bc++=61136 bc--=54477 inv=820009
[DSB @ 4900000 calls] bc=7 isBypassOn=true| real=2032245 virt=178612 notrack=2689142 | touchRes=53300(eff=47983,ineff=5317) resetRes=64750(ineff=57080,eff=7670) | bc++=62397 bc--=55653 inv=836810
[DSB @ 5000000 calls] bc=0 isBypassOn=true| real=2072443 virt=182425 notrack=2745131 | touchRes=54376(eff=48938,ineff=5438) resetRes=66042(ineff=58227,eff=7815) | bc++=63665 bc--=56753 inv=854258
[DSB @ 5100000 calls] bc=8 isBypassOn=false| real=2114480 virt=186033 notrack=2799486 | touchRes=55428(eff=49912,ineff=5516) resetRes=67389(ineff=59429,eff=7960) | bc++=64945 bc--=57872 inv=871617
[DSB @ 5200000 calls] bc=3 isBypassOn=true| real=2155423 virt=189732 notrack=2854844 | touchRes=56517(eff=50887,ineff=5630) resetRes=68660(ineff=60538,eff=8122) | bc++=66168 bc--=59009 inv=888618
[DSB @ 5300000 calls] bc=8 isBypassOn=false| real=2195591 virt=193343 notrack=2911065 | touchRes=57531(eff=51803,ineff=5728) resetRes=69962(ineff=61697,eff=8265) | bc++=67425 bc--=60068 inv=906038
[DSB @ 5400000 calls] bc=8 isBypassOn=false| real=2238347 virt=196924 notrack=2964728 | touchRes=58629(eff=52813,ineff=5816) resetRes=71281(ineff=62861,eff=8420) | bc++=68677 bc--=61233 inv=922963
[DSB @ 5500000 calls] bc=0 isBypassOn=true| real=2279983 virt=200619 notrack=3019397 | touchRes=59715(eff=53811,ineff=5904) resetRes=72628(ineff=64058,eff=8570) | bc++=69962 bc--=62381 inv=940155
[DSB @ 5600000 calls] bc=8 isBypassOn=false| real=2322456 virt=204208 notrack=3073335 | touchRes=60779(eff=54787,ineff=5992) resetRes=73966(ineff=65243,eff=8723) | bc++=71235 bc--=63510 inv=957401
[DSB @ 5700000 calls] bc=2 isBypassOn=true| real=2364583 virt=207908 notrack=3127508 | touchRes=61861(eff=55769,ineff=6092) resetRes=75272(ineff=66386,eff=8886) | bc++=72478 bc--=64655 inv=974321
[DSB @ 5800000 calls] bc=0 isBypassOn=true| real=2404129 virt=211663 notrack=3184207 | touchRes=62904(eff=56711,ineff=6193) resetRes=76581(ineff=67527,eff=9054) | bc++=73720 bc--=65765 inv=991643
[DSB @ 5900000 calls] bc=8 isBypassOn=true| real=2446118 virt=215208 notrack=3238673 | touchRes=63971(eff=57670,ineff=6301) resetRes=77900(ineff=68706,eff=9194) | bc++=75007 bc--=66864 inv=1008919
[DSB @ 6000000 calls] bc=0 isBypassOn=true| real=2488962 virt=218761 notrack=3292276 | touchRes=65050(eff=58653,ineff=6397) resetRes=79242(ineff=69880,eff=9362) | bc++=76277 bc--=68015 inv=1025721
[DSB @ 6100000 calls] bc=8 isBypassOn=true| real=2528099 virt=222602 notrack=3349298 | touchRes=66042(eff=59547,ineff=6495) resetRes=80543(ineff=71039,eff=9504) | bc++=77534 bc--=69051 inv=1043336
[DSB @ 6200000 calls] bc=0 isBypassOn=true| real=2566728 virt=226528 notrack=3406743 | touchRes=67052(eff=60445,ineff=6607) resetRes=81783(ineff=72129,eff=9654) | bc++=78736 bc--=70099 inv=1060597
[DSB @ 6300000 calls] bc=8 isBypassOn=false| real=2609971 virt=230096 notrack=3459932 | touchRes=68125(eff=61445,ineff=6680) resetRes=83187(ineff=73367,eff=9820) | bc++=80047 bc--=71265 inv=1077815
[DSB @ 6400000 calls] bc=8 isBypassOn=false| real=2650294 virt=233789 notrack=3515916 | touchRes=69184(eff=62396,ineff=6788) resetRes=84465(ineff=74491,eff=9974) | bc++=81279 bc--=72370 inv=1095088
[DSB @ 6500000 calls] bc=1 isBypassOn=true| real=2693274 virt=237416 notrack=3569309 | touchRes=70301(eff=63424,ineff=6877) resetRes=85818(ineff=75680,eff=10138) | bc++=82557 bc--=73562 inv=1111893
[DSB @ 6600000 calls] bc=0 isBypassOn=true| real=2734732 virt=241108 notrack=3624159 | touchRes=71380(eff=64402,ineff=6978) resetRes=87193(ineff=76889,eff=10304) | bc++=83867 bc--=74706 inv=1129341
[DSB @ 6700000 calls] bc=8 isBypassOn=true| real=2778452 virt=244561 notrack=3676986 | touchRes=72477(eff=65420,ineff=7057) resetRes=88573(ineff=78096,eff=10477) | bc++=85153 bc--=75897 inv=1146489
[DSB @ 6800000 calls] bc=0 isBypassOn=true| real=2818384 virt=248268 notrack=3733347 | touchRes=73513(eff=66341,ineff=7172) resetRes=89817(ineff=79202,eff=10615) | bc++=86374 bc--=76956 inv=1163535
[DSB @ 6900000 calls] bc=6 isBypassOn=true| real=2859264 virt=252026 notrack=3788709 | touchRes=74584(eff=67327,ineff=7257) resetRes=91175(ineff=80398,eff=10777) | bc++=87655 bc--=78104 inv=1180906
[DSB @ 7000000 calls] bc=8 isBypassOn=false| real=2902976 virt=255622 notrack=3841401 | touchRes=75689(eff=68352,ineff=7337) resetRes=92556(ineff=81596,eff=10960) | bc++=88933 bc--=79312 inv=1197931
[DSB @ 7100000 calls] bc=1 isBypassOn=true| real=2946081 virt=259229 notrack=3894689 | touchRes=76784(eff=69364,ineff=7420) resetRes=93899(ineff=82785,eff=11114) | bc++=90205 bc--=80478 inv=1214740
[DSB @ 7200000 calls] bc=3 isBypassOn=true| real=2985850 virt=263085 notrack=3951064 | touchRes=77799(eff=70288,ineff=7511) resetRes=95213(ineff=83954,eff=11259) | bc++=91465 bc--=81547 inv=1232373
[DSB @ 7300000 calls] bc=8 isBypassOn=false| real=3029254 virt=266644 notrack=4004101 | touchRes=78863(eff=71274,ineff=7589) resetRes=96546(ineff=85134,eff=11412) | bc++=92723 bc--=82686 inv=1249288
[DSB @ 7400000 calls] bc=0 isBypassOn=true| real=3071282 virt=270297 notrack=4058420 | touchRes=79933(eff=72257,ineff=7676) resetRes=97904(ineff=86321,eff=11583) | bc++=93997 bc--=83840 inv=1266294
[DSB @ 7500000 calls] bc=8 isBypassOn=false| real=3112557 virt=273879 notrack=4113563 | touchRes=80969(eff=73205,ineff=7764) resetRes=99247(ineff=87512,eff=11735) | bc++=95276 bc--=84940 inv=1283571
[DSB @ 7600000 calls] bc=0 isBypassOn=true| real=3154853 virt=277454 notrack=4167692 | touchRes=82037(eff=74173,ineff=7864) resetRes=100530(ineff=88642,eff=11888) | bc++=96506 bc--=86061 inv=1300235
[DSB @ 7700000 calls] bc=4 isBypassOn=true| real=3195658 virt=281146 notrack=4223195 | touchRes=83074(eff=75114,ineff=7960) resetRes=101900(ineff=89856,eff=12044) | bc++=97816 bc--=87158 inv=1317769
[DSB @ 7800000 calls] bc=8 isBypassOn=false| real=3237588 virt=284825 notrack=4277586 | touchRes=84132(eff=76087,ineff=8045) resetRes=103234(ineff=91031,eff=12203) | bc++=99076 bc--=88290 inv=1335088
[DSB @ 7900000 calls] bc=1 isBypassOn=true| real=3280669 virt=288380 notrack=4330950 | touchRes=85249(eff=77108,ineff=8141) resetRes=104560(ineff=92194,eff=12366) | bc++=100335 bc--=89474 inv=1351869
[DSB @ 8000000 calls] bc=0 isBypassOn=true| real=3320679 virt=292198 notrack=4387122 | touchRes=86328(eff=78073,ineff=8255) resetRes=105917(ineff=93372,eff=12545) | bc++=101627 bc--=90618 inv=1369262
[DSB @ 8100000 calls] bc=8 isBypassOn=false| real=3362878 virt=295869 notrack=4441252 | touchRes=87374(eff=79024,ineff=8350) resetRes=107262(ineff=94560,eff=12702) | bc++=102910 bc--=91726 inv=1386576
[DSB @ 8200000 calls] bc=1 isBypassOn=true| real=3405558 virt=299509 notrack=4494932 | touchRes=88437(eff=80009,ineff=8428) resetRes=108594(ineff=95727,eff=12867) | bc++=104155 bc--=92876 inv=1403421
[DSB @ 8300000 calls] bc=0 isBypassOn=true| real=3445808 virt=303175 notrack=4551016 | touchRes=89460(eff=80940,ineff=8520) resetRes=109934(ineff=96899,eff=13035) | bc++=105419 bc--=93975 inv=1420854
[DSB @ 8400000 calls] bc=8 isBypassOn=true| real=3486812 virt=306944 notrack=4606243 | touchRes=90505(eff=81880,ineff=8625) resetRes=111226(ineff=98057,eff=13169) | bc++=106682 bc--=95049 inv=1438286
[DSB @ 8500000 calls] bc=8 isBypassOn=false| real=3529148 virt=310517 notrack=4660334 | touchRes=91598(eff=82880,ineff=8718) resetRes=112532(ineff=99214,eff=13318) | bc++=107932 bc--=96198 inv=1455349
[DSB @ 8600000 calls] bc=0 isBypassOn=true| real=3570954 virt=314131 notrack=4714914 | touchRes=92672(eff=83860,ineff=8812) resetRes=113890(ineff=100404,eff=13486) | bc++=109216 bc--=97346 inv=1472383
[DSB @ 8700000 calls] bc=8 isBypassOn=false| real=3612899 virt=317870 notrack=4769230 | touchRes=93717(eff=84816,ineff=8901) resetRes=115268(ineff=101626,eff=13642) | bc++=110527 bc--=98458 inv=1489833
[DSB @ 8800000 calls] bc=0 isBypassOn=true| real=3656548 virt=321348 notrack=4822103 | touchRes=94817(eff=85824,ineff=8993) resetRes=116610(ineff=102804,eff=13806) | bc++=111797 bc--=99630 inv=1506501
[DSB @ 8900000 calls] bc=8 isBypassOn=false| real=3693209 virt=325351 notrack=4881439 | touchRes=95772(eff=86667,ineff=9105) resetRes=117844(ineff=103866,eff=13978) | bc++=112971 bc--=100645 inv=1523830
[DSB @ 9000000 calls] bc=0 isBypassOn=true| real=3734914 virt=329002 notrack=4936083 | touchRes=96828(eff=87624,ineff=9204) resetRes=119152(ineff=105020,eff=14132) | bc++=114224 bc--=101756 inv=1540825
[DSB @ 9100000 calls] bc=3 isBypassOn=true| real=3775619 virt=332651 notrack=4991729 | touchRes=97847(eff=88558,ineff=9289) resetRes=120504(ineff=106223,eff=14281) | bc++=115512 bc--=102839 inv=1558311
[DSB @ 9200000 calls] bc=8 isBypassOn=false| real=3815718 virt=336466 notrack=5047815 | touchRes=98910(eff=89505,ineff=9405) resetRes=121782(ineff=107341,eff=14441) | bc++=116746 bc--=103946 inv=1575757
[DSB @ 9300000 calls] bc=0 isBypassOn=true| real=3857136 virt=340177 notrack=5102686 | touchRes=99964(eff=90459,ineff=9505) resetRes=123091(ineff=108491,eff=14600) | bc++=117996 bc--=105059 inv=1592576
[DSB @ 9400000 calls] bc=0 isBypassOn=true| real=3898894 virt=343870 notrack=5157235 | touchRes=101033(eff=91436,ineff=9597) resetRes=124463(ineff=109711,eff=14752) | bc++=119308 bc--=106188 inv=1609947
[DSB @ 9500000 calls] bc=8 isBypassOn=false| real=3940227 virt=347467 notrack=5212305 | touchRes=102069(eff=92366,ineff=9703) resetRes=125794(ineff=110890,eff=14904) | bc++=120593 bc--=107270 inv=1627269
[DSB @ 9600000 calls] bc=0 isBypassOn=true| real=4037034 virt=347681 notrack=5215284 | touchRes=102529(eff=92822,ineff=9707) resetRes=125864(ineff=110945,eff=14919) | bc++=120652 bc--=107741 inv=1628190
[DSB @ 9700000 calls] bc=0 isBypassOn=true| real=4137034 virt=347681 notrack=5215284 | touchRes=102529(eff=92822,ineff=9707) resetRes=125864(ineff=110945,eff=14919) | bc++=120652 bc--=107741 inv=1628190
[DSB @ 9800000 calls] bc=0 isBypassOn=true| real=4237034 virt=347681 notrack=5215284 | touchRes=102529(eff=92822,ineff=9707) resetRes=125864(ineff=110945,eff=14919) | bc++=120652 bc--=107741 inv=1628190
[DSB @ 9900000 calls] bc=0 isBypassOn=true| real=4337034 virt=347681 notrack=5215284 | touchRes=102529(eff=92822,ineff=9707) resetRes=125864(ineff=110945,eff=14919) | bc++=120652 bc--=107741 inv=1628190
[DSB @ 10000000 calls] bc=0 isBypassOn=true| real=4437034 virt=347681 notrack=5215284 | touchRes=102529(eff=92822,ineff=9707) resetRes=125864(ineff=110945,eff=14919) | bc++=120652 bc--=107741 inv=1628190
[DSB @ 10100000 calls] bc=0 isBypassOn=true| real=4537034 virt=347681 notrack=5215284 | touchRes=102529(eff=92822,ineff=9707) resetRes=125864(ineff=110945,eff=14919) | bc++=120652 bc--=107741 inv=1628190
[DSB @ 10200000 calls] bc=0 isBypassOn=true| real=4637034 virt=347681 notrack=5215284 | touchRes=102529(eff=92822,ineff=9707) resetRes=125864(ineff=110945,eff=14919) | bc++=120652 bc--=107741 inv=1628190
[DSB @ 10300000 calls] bc=0 isBypassOn=true| real=4737034 virt=347681 notrack=5215284 | touchRes=102529(eff=92822,ineff=9707) resetRes=125864(ineff=110945,eff=14919) | bc++=120652 bc--=107741 inv=1628190
[DSB @ 10400000 calls] bc=0 isBypassOn=true| real=4837034 virt=347681 notrack=5215284 | touchRes=102529(eff=92822,ineff=9707) resetRes=125864(ineff=110945,eff=14919) | bc++=120652 bc--=107741 inv=1628190
[DSB @ 10500000 calls] bc=0 isBypassOn=true| real=4937034 virt=347681 notrack=5215284 | touchRes=102529(eff=92822,ineff=9707) resetRes=125864(ineff=110945,eff=14919) | bc++=120652 bc--=107741 inv=1628190
[DSB @ 10600000 calls] bc=0 isBypassOn=true| real=5037034 virt=347681 notrack=5215284 | touchRes=102529(eff=92822,ineff=9707) resetRes=125864(ineff=110945,eff=14919) | bc++=120652 bc--=107741 inv=1628190
[DSB @ 10700000 calls] bc=0 isBypassOn=true| real=5137034 virt=347681 notrack=5215284 | touchRes=102529(eff=92822,ineff=9707) resetRes=125864(ineff=110945,eff=14919) | bc++=120652 bc--=107741 inv=1628190
[DSB @ 10800000 calls] bc=0 isBypassOn=true| real=5237034 virt=347681 notrack=5215284 | touchRes=102529(eff=92822,ineff=9707) resetRes=125864(ineff=110945,eff=14919) | bc++=120652 bc--=107741 inv=1628190
[DSB @ 10900000 calls] bc=0 isBypassOn=true| real=5337034 virt=347681 notrack=5215284 | touchRes=102529(eff=92822,ineff=9707) resetRes=125864(ineff=110945,eff=14919) | bc++=120652 bc--=107741 inv=1628190
[DSB @ 11000000 calls] bc=0 isBypassOn=true| real=5437034 virt=347681 notrack=5215284 | touchRes=102529(eff=92822,ineff=9707) resetRes=125864(ineff=110945,eff=14919) | bc++=120652 bc--=107741 inv=1628190
[DSB @ 11100000 calls] bc=0 isBypassOn=true| real=5537034 virt=347681 notrack=5215284 | touchRes=102529(eff=92822,ineff=9707) resetRes=125864(ineff=110945,eff=14919) | bc++=120652 bc--=107741 inv=1628190
[DSB @ 11200000 calls] bc=0 isBypassOn=true| real=5637034 virt=347681 notrack=5215284 | touchRes=102529(eff=92822,ineff=9707) resetRes=125864(ineff=110945,eff=14919) | bc++=120652 bc--=107741 inv=1628190
[DSB @ 11300000 calls] bc=0 isBypassOn=true| real=5737034 virt=347681 notrack=5215284 | touchRes=102529(eff=92822,ineff=9707) resetRes=125864(ineff=110945,eff=14919) | bc++=120652 bc--=107741 inv=1628190
[DSB @ 11400000 calls] bc=0 isBypassOn=true| real=5837034 virt=347681 notrack=5215284 | touchRes=102529(eff=92822,ineff=9707) resetRes=125864(ineff=110945,eff=14919) | bc++=120652 bc--=107741 inv=1628190
[DSB @ 11500000 calls] bc=0 isBypassOn=true| real=5937034 virt=347681 notrack=5215284 | touchRes=102529(eff=92822,ineff=9707) resetRes=125864(ineff=110945,eff=14919) | bc++=120652 bc--=107741 inv=1628190
[DSB @ 11600000 calls] bc=0 isBypassOn=true| real=6037034 virt=347681 notrack=5215284 | touchRes=102529(eff=92822,ineff=9707) resetRes=125864(ineff=110945,eff=14919) | bc++=120652 bc--=107741 inv=1628190
[DSB @ 11700000 calls] bc=0 isBypassOn=true| real=6137034 virt=347681 notrack=5215284 | touchRes=102529(eff=92822,ineff=9707) resetRes=125864(ineff=110945,eff=14919) | bc++=120652 bc--=107741 inv=1628190
[DSB @ 11800000 calls] bc=0 isBypassOn=true| real=6237034 virt=347681 notrack=5215284 | touchRes=102529(eff=92822,ineff=9707) resetRes=125864(ineff=110945,eff=14919) | bc++=120652 bc--=107741 inv=1628190
[DSB @ 11900000 calls] bc=0 isBypassOn=true| real=6337034 virt=347681 notrack=5215284 | touchRes=102529(eff=92822,ineff=9707) resetRes=125864(ineff=110945,eff=14919) | bc++=120652 bc--=107741 inv=1628190
[DSB @ 12000000 calls] bc=0 isBypassOn=true| real=6437034 virt=347681 notrack=5215284 | touchRes=102529(eff=92822,ineff=9707) resetRes=125864(ineff=110945,eff=14919) | bc++=120652 bc--=107741 inv=1628190
[DSB @ 12100000 calls] bc=0 isBypassOn=true| real=6537034 virt=347681 notrack=5215284 | touchRes=102529(eff=92822,ineff=9707) resetRes=125864(ineff=110945,eff=14919) | bc++=120652 bc--=107741 inv=1628190
[DSB @ 12200000 calls] bc=0 isBypassOn=true| real=6637034 virt=347681 notrack=5215284 | touchRes=102529(eff=92822,ineff=9707) resetRes=125864(ineff=110945,eff=14919) | bc++=120652 bc--=107741 inv=1628190
[DSB @ 12300000 calls] bc=0 isBypassOn=true| real=6737034 virt=347681 notrack=5215284 | touchRes=102529(eff=92822,ineff=9707) resetRes=125864(ineff=110945,eff=14919) | bc++=120652 bc--=107741 inv=1628190
[DSB @ 12400000 calls] bc=0 isBypassOn=true| real=6837034 virt=347681 notrack=5215284 | touchRes=102529(eff=92822,ineff=9707) resetRes=125864(ineff=110945,eff=14919) | bc++=120652 bc--=107741 inv=1628190
[DSB @ 12500000 calls] bc=0 isBypassOn=true| real=6937034 virt=347681 notrack=5215284 | touchRes=102529(eff=92822,ineff=9707) resetRes=125864(ineff=110945,eff=14919) | bc++=120652 bc--=107741 inv=1628190
[DSB @ 12600000 calls] bc=0 isBypassOn=true| real=7037034 virt=347681 notrack=5215284 | touchRes=102529(eff=92822,ineff=9707) resetRes=125864(ineff=110945,eff=14919) | bc++=120652 bc--=107741 inv=1628190
[DSB @ 12700000 calls] bc=0 isBypassOn=true| real=7137034 virt=347681 notrack=5215284 | touchRes=102529(eff=92822,ineff=9707) resetRes=125864(ineff=110945,eff=14919) | bc++=120652 bc--=107741 inv=1628190
[DSB @ 12800000 calls] bc=0 isBypassOn=true| real=7237034 virt=347681 notrack=5215284 | touchRes=102529(eff=92822,ineff=9707) resetRes=125864(ineff=110945,eff=14919) | bc++=120652 bc--=107741 inv=1628190
[DSB @ 12900000 calls] bc=0 isBypassOn=true| real=7337034 virt=347681 notrack=5215284 | touchRes=102529(eff=92822,ineff=9707) resetRes=125864(ineff=110945,eff=14919) | bc++=120652 bc--=107741 inv=1628190
[DSB @ 13000000 calls] bc=0 isBypassOn=true| real=7437034 virt=347681 notrack=5215284 | touchRes=102529(eff=92822,ineff=9707) resetRes=125864(ineff=110945,eff=14919) | bc++=120652 bc--=107741 inv=1628190
[DSB @ 13100000 calls] bc=0 isBypassOn=true| real=7537034 virt=347681 notrack=5215284 | touchRes=102529(eff=92822,ineff=9707) resetRes=125864(ineff=110945,eff=14919) | bc++=120652 bc--=107741 inv=1628190
[DSB @ 13200000 calls] bc=0 isBypassOn=true| real=7637034 virt=347681 notrack=5215284 | touchRes=102529(eff=92822,ineff=9707) resetRes=125864(ineff=110945,eff=14919) | bc++=120652 bc--=107741 inv=1628190
[DSB @ 13300000 calls] bc=0 isBypassOn=true| real=7737034 virt=347681 notrack=5215284 | touchRes=102529(eff=92822,ineff=9707) resetRes=125864(ineff=110945,eff=14919) | bc++=120652 bc--=107741 inv=1628190
[DSB @ 13400000 calls] bc=0 isBypassOn=true| real=7837034 virt=347681 notrack=5215284 | touchRes=102529(eff=92822,ineff=9707) resetRes=125864(ineff=110945,eff=14919) | bc++=120652 bc--=107741 inv=1628190
Exiting @ tick 26620779391500 because a thread reached the max instruction count
