warn: The `get_runtime_isa` function is deprecated. Please migrate away from using this function.
warn: The se.py script is deprecated. It will be removed in future releases of  gem5.
warn: The `get_runtime_isa` function is deprecated. Please migrate away from using this function.
Global frequency set at 1000000000000 ticks per second
src/base/statistics.hh:279: warn: One of the stats is a legacy stat. Legacy stat is a stat that does not belong to any statistics::Group. Legacy stat is deprecated.
src/base/remote_gdb.cc:418: warn: Sockets disabled, not accepting gdb connections
src/sim/process.cc:396: warn: Checkpoints for pipes, device drivers and sockets do not work.
gem5 Simulator System.  https://www.gem5.org
gem5 is copyrighted software; use the --copyright option for details.

gem5 version 23.0.0.1
gem5 compiled Apr  6 2026 01:50:35
gem5 started Apr  6 2026 11:52:08
gem5 executing on b49ce2a326be, pid 199511
command line: /opt/gem5/build/X86/gem5.opt --outdir=/workspace/results_l3/2MB/policy0Config2/pop2 /workspace/configs/run_spec_l3.py --rp-type=DSBRP --l3-size=2MB --l3-assoc=16 --cpu-type=DerivO3CPU --cmd=./speed_pop2_base.gem5-x86 --options= --mem-size=8GB --maxinst=250000000 --caches --l2cache --l1d_size=32kB --l1i_size=32kB --l1d_assoc=8 --l1i_assoc=8 --l2_size=256kB --l2_assoc=8 --checkpoint-restore=1 --checkpoint-dir=/workspace/checkpoints/pop2/m5out --restore-with-cpu=AtomicSimpleCPU --standard-switch=1 --warmup-insts=50000000 --dsb-enable-bypass=true --dsb-enable-aging=false --dsb-bypass-counter=6 --dsb-virtual-bypass-counter=3 --dsb-random-promotion=0 --dsb-minimum-bypass-counter=12

info: Standard input is not a terminal, disabling listeners.
Replacement policy: DSBRP
L1I size: 32kB, assoc: 8
L1D size: 32kB, assoc: 8
L2 size: 256kB, assoc: 8
L3 size: 2MB, L3 assoc: 16
Switch at instruction count:1
src/sim/simulate.cc:194: info: Entering event queue @ 28375057083500.  Starting simulation...
src/sim/simulate.cc:194: info: Entering event queue @ 28375057085000.  Starting simulation...
src/sim/power_state.cc:105: warn: PowerState: Already in the requested power state, request ignored
Switched CPUS @ tick 28375057085000
switching cpus
Switch at instruction count:50000000
src/sim/simulate.cc:194: info: Entering event queue @ 28375057086000.  Starting simulation...
[DSB @ 100000 calls] bc=1 isBypassOn=true| real=15974 virt=10495 notrack=73530 | touchRes=7708(eff=3082,ineff=4626) resetRes=1795(ineff=1207,eff=588) | bc++=5833 bc--=3670 inv=7315
[DSB @ 200000 calls] bc=12 isBypassOn=false| real=17262 virt=22768 notrack=159969 | touchRes=12365(eff=3491,ineff=8874) resetRes=3221(ineff=1532,eff=1689) | bc++=10406 bc--=5180 inv=13934
src/sim/simulate.cc:194: info: Entering event queue @ 28519023363000.  Starting simulation...
Switching CPUS @ tick 28519023363000
Simulation ends instruction count:250000000
switching cpus
**** REAL SIMULATION ****
src/sim/simulate.cc:194: info: Entering event queue @ 28519023635500.  Starting simulation...
[DSB @ 300000 calls] bc=12 isBypassOn=true| real=18355 virt=35173 notrack=246471 | touchRes=17135(eff=3814,ineff=13321) resetRes=4429(ineff=1716,eff=2713) | bc++=15037 bc--=6527 inv=20263
[DSB @ 400000 calls] bc=12 isBypassOn=false| real=19581 virt=47712 notrack=332706 | touchRes=22308(eff=4190,ineff=18118) resetRes=5805(ineff=1990,eff=3815) | bc++=20108 bc--=8005 inv=26358
[DSB @ 500000 calls] bc=0 isBypassOn=true| real=64398 virt=54535 notrack=381066 | touchRes=31665(eff=12506,ineff=19159) resetRes=8323(ineff=4003,eff=4320) | bc++=23162 bc--=16826 inv=37624
[DSB @ 600000 calls] bc=12 isBypassOn=false| real=134002 virt=58339 notrack=407658 | touchRes=39417(eff=19998,ineff=19419) resetRes=9809(ineff=5178,eff=4631) | bc++=24597 bc--=24629 inv=50091
[DSB @ 700000 calls] bc=1 isBypassOn=true| real=175579 virt=65400 notrack=459020 | touchRes=47826(eff=27668,ineff=20158) resetRes=13538(ineff=8350,eff=5188) | bc++=28508 bc--=32856 inv=63672
[DSB @ 800000 calls] bc=0 isBypassOn=true| real=232617 virt=70844 notrack=496538 | touchRes=54385(eff=33975,ineff=20410) resetRes=15541(ineff=9963,eff=5578) | bc++=30373 bc--=39553 inv=78458
[DSB @ 900000 calls] bc=0 isBypassOn=true| real=301784 virt=74643 notrack=523572 | touchRes=59868(eff=39306,ineff=20562) resetRes=15825(ineff=10145,eff=5680) | bc++=30707 bc--=44986 inv=88176
[DSB @ 1000000 calls] bc=0 isBypassOn=true| real=383261 virt=76914 notrack=539824 | touchRes=63910(eff=43281,ineff=20629) resetRes=16575(ineff=10648,eff=5927) | bc++=31277 bc--=49208 inv=95838
[DSB @ 1100000 calls] bc=0 isBypassOn=true| real=461190 virt=79751 notrack=559058 | touchRes=68975(eff=48216,ineff=20759) resetRes=17266(ineff=11175,eff=6091) | bc++=31934 bc--=54307 inv=103495
[DSB @ 1200000 calls] bc=12 isBypassOn=false| real=475577 virt=90478 notrack=633944 | touchRes=74484(eff=51335,ineff=23149) resetRes=19459(ineff=12545,eff=6914) | bc++=35694 bc--=58249 inv=114554
[DSB @ 1300000 calls] bc=12 isBypassOn=true| real=475701 virt=103001 notrack=721297 | touchRes=78533(eff=51359,ineff=27174) resetRes=20653(ineff=12566,eff=8087) | bc++=39740 bc--=59446 inv=121107
[DSB @ 1400000 calls] bc=12 isBypassOn=false| real=475952 virt=115391 notrack=808656 | touchRes=82583(eff=51404,ineff=31179) resetRes=21715(ineff=12600,eff=9115) | bc++=43779 bc--=60519 inv=127594
[DSB @ 1500000 calls] bc=12 isBypassOn=false| real=476176 virt=127820 notrack=896003 | touchRes=86772(eff=51474,ineff=35298) resetRes=22908(ineff=12638,eff=10270) | bc++=47936 bc--=61744 inv=133901
[DSB @ 1600000 calls] bc=12 isBypassOn=false| real=521412 virt=134741 notrack=943846 | touchRes=92951(eff=55893,ineff=37058) resetRes=24429(ineff=13575,eff=10854) | bc++=50633 bc--=66747 inv=142910
[DSB @ 1700000 calls] bc=12 isBypassOn=true| real=573829 virt=140591 notrack=985579 | touchRes=100757(eff=62903,ineff=37854) resetRes=25722(ineff=14572,eff=11150) | bc++=52426 bc--=74053 inv=155574
[DSB @ 1800000 calls] bc=0 isBypassOn=true| real=624339 virt=146822 notrack=1028838 | touchRes=109495(eff=71081,ineff=38414) resetRes=29079(ineff=17431,eff=11648) | bc++=55845 bc--=82729 inv=168607
[DSB @ 1900000 calls] bc=0 isBypassOn=true| real=684331 virt=151821 notrack=1063847 | touchRes=116443(eff=77819,ineff=38624) resetRes=31046(ineff=19041,eff=12005) | bc++=57665 bc--=89824 inv=182714
Exiting @ tick 28696165281000 because a thread reached the max instruction count
