warn: The `get_runtime_isa` function is deprecated. Please migrate away from using this function.
warn: The se.py script is deprecated. It will be removed in future releases of  gem5.
warn: The `get_runtime_isa` function is deprecated. Please migrate away from using this function.
Global frequency set at 1000000000000 ticks per second
src/mem/dram_interface.cc:690: warn: DRAM device capacity (8192 Mbytes) does not match the address range assigned (16384 Mbytes)
src/base/statistics.hh:279: warn: One of the stats is a legacy stat. Legacy stat is a stat that does not belong to any statistics::Group. Legacy stat is deprecated.
src/base/remote_gdb.cc:418: warn: Sockets disabled, not accepting gdb connections
src/sim/process.cc:396: warn: Checkpoints for pipes, device drivers and sockets do not work.
gem5 Simulator System.  https://www.gem5.org
gem5 is copyrighted software; use the --copyright option for details.

gem5 version 23.0.0.1
gem5 compiled Apr  6 2026 01:50:35
gem5 started Apr  6 2026 10:38:26
gem5 executing on b49ce2a326be, pid 185910
command line: /opt/gem5/build/X86/gem5.opt --outdir=/workspace/results_l3/2MB/policy0Config1/roms /workspace/configs/run_spec_l3.py --rp-type=DSBRP --l3-size=2MB --l3-assoc=16 --cpu-type=DerivO3CPU --cmd=./sroms_base.gem5-x86 --options= --mem-size=16GB --maxinst=250000000 --caches --l2cache --l1d_size=32kB --l1i_size=32kB --l1d_assoc=8 --l1i_assoc=8 --l2_size=256kB --l2_assoc=8 --checkpoint-restore=1 --checkpoint-dir=/workspace/checkpoints/roms/m5out --restore-with-cpu=AtomicSimpleCPU --standard-switch=1 --warmup-insts=50000000 --input=ocean_benchmark3.in --dsb-enable-bypass=true --dsb-enable-aging=false --dsb-bypass-counter=6 --dsb-virtual-bypass-counter=4 --dsb-random-promotion=0 --dsb-minimum-bypass-counter=8

info: Standard input is not a terminal, disabling listeners.
Replacement policy: DSBRP
L1I size: 32kB, assoc: 8
L1D size: 32kB, assoc: 8
L2 size: 256kB, assoc: 8
L3 size: 2MB, L3 assoc: 16
Switch at instruction count:1
src/sim/simulate.cc:194: info: Entering event queue @ 26962283379000.  Starting simulation...
src/sim/power_state.cc:105: warn: PowerState: Already in the requested power state, request ignored
Switched CPUS @ tick 26962283380500
switching cpus
Switch at instruction count:50000000
src/sim/simulate.cc:194: info: Entering event queue @ 26962283380500.  Starting simulation...
[DSB @ 100000 calls] bc=0 isBypassOn=true| real=31313 virt=4269 notrack=64417 | touchRes=6946(eff=4956,ineff=1990) resetRes=1758(ineff=1499,eff=259) | bc++=3489 bc--=5215 inv=7842
[DSB @ 200000 calls] bc=0 isBypassOn=true| real=77193 virt=7637 notrack=115169 | touchRes=15143(eff=12508,ineff=2635) resetRes=4393(ineff=3865,eff=528) | bc++=6500 bc--=13036 inv=21883
[DSB @ 300000 calls] bc=6 isBypassOn=true| real=116498 virt=11456 notrack=172045 | touchRes=22468(eff=18993,ineff=3475) resetRes=7001(ineff=6185,eff=816) | bc++=9660 bc--=19809 inv=34989
src/sim/simulate.cc:194: info: Entering event queue @ 27107208658500.  Starting simulation...
Switching CPUS @ tick 27107208658500
Simulation ends instruction count:250000000
switching cpus
**** REAL SIMULATION ****
src/sim/simulate.cc:194: info: Entering event queue @ 27107209188250.  Starting simulation...
[DSB @ 400000 calls] bc=0 isBypassOn=true| real=163877 virt=14757 notrack=221365 | touchRes=31418(eff=27200,ineff=4218) resetRes=9660(ineff=8532,eff=1128) | bc++=12750 bc--=28328 inv=47819
[DSB @ 500000 calls] bc=0 isBypassOn=true| real=202709 virt=18506 notrack=278784 | touchRes=38267(eff=33197,ineff=5070) resetRes=11787(ineff=10322,eff=1465) | bc++=15392 bc--=34662 inv=60474
[DSB @ 600000 calls] bc=7 isBypassOn=true| real=244423 virt=22088 notrack=333488 | touchRes=45277(eff=39458,ineff=5819) resetRes=13914(ineff=12190,eff=1724) | bc++=18009 bc--=41182 inv=72997
[DSB @ 700000 calls] bc=6 isBypassOn=true| real=288889 virt=25550 notrack=385560 | touchRes=52541(eff=45937,ineff=6604) resetRes=16613(ineff=14499,eff=2114) | bc++=21103 bc--=48051 inv=85225
[DSB @ 800000 calls] bc=4 isBypassOn=true| real=342894 virt=28462 notrack=428643 | touchRes=60665(eff=53464,ineff=7201) resetRes=19174(ineff=16805,eff=2369) | bc++=24006 bc--=55833 inv=97624
[DSB @ 900000 calls] bc=0 isBypassOn=true| real=383174 virt=32212 notrack=484613 | touchRes=68086(eff=60034,ineff=8052) resetRes=21679(ineff=18971,eff=2708) | bc++=27023 bc--=62742 inv=110396
[DSB @ 1000000 calls] bc=4 isBypassOn=true| real=440989 virt=34836 notrack=524174 | touchRes=77861(eff=69318,ineff=8543) resetRes=24950(ineff=21991,eff=2959) | bc++=30534 bc--=72277 inv=125175
[DSB @ 1100000 calls] bc=1 isBypassOn=true| real=488675 virt=38109 notrack=573215 | touchRes=86621(eff=77316,ineff=9305) resetRes=27994(ineff=24712,eff=3282) | bc++=34017 bc--=80598 inv=139051
[DSB @ 1200000 calls] bc=7 isBypassOn=true| real=534380 virt=41517 notrack=624102 | touchRes=94901(eff=84815,ineff=10086) resetRes=30993(ineff=27365,eff=3628) | bc++=37451 bc--=88443 inv=152581
[DSB @ 1300000 calls] bc=8 isBypassOn=false| real=578278 virt=45078 notrack=676643 | touchRes=103722(eff=92875,ineff=10847) resetRes=34354(ineff=30375,eff=3979) | bc++=41222 bc--=96854 inv=165644
[DSB @ 1400000 calls] bc=4 isBypassOn=true| real=625242 virt=48381 notrack=726376 | touchRes=112206(eff=100678,ineff=11528) resetRes=37645(ineff=33342,eff=4303) | bc++=44870 bc--=104981 inv=179312
[DSB @ 1500000 calls] bc=0 isBypassOn=true| real=670731 virt=51718 notrack=777550 | touchRes=120823(eff=108585,ineff=12238) resetRes=40430(ineff=35820,eff=4610) | bc++=48058 bc--=113195 inv=192846
[DSB @ 1600000 calls] bc=8 isBypassOn=false| real=706577 virt=55848 notrack=837574 | touchRes=128338(eff=115169,ineff=13169) resetRes=42981(ineff=38011,eff=4970) | bc++=51180 bc--=120139 inv=205534
[DSB @ 1700000 calls] bc=0 isBypassOn=true| real=757285 virt=58969 notrack=883745 | touchRes=137780(eff=123877,ineff=13903) resetRes=45737(ineff=40473,eff=5264) | bc++=54376 bc--=129141 inv=218591
[DSB @ 1800000 calls] bc=0 isBypassOn=true| real=804983 virt=62318 notrack=932698 | touchRes=145838(eff=131157,ineff=14681) resetRes=48198(ineff=42625,eff=5573) | bc++=57306 bc--=136730 inv=231352
[DSB @ 1900000 calls] bc=3 isBypassOn=true| real=853311 virt=65464 notrack=981224 | touchRes=155351(eff=140105,ineff=15246) resetRes=51747(ineff=45893,eff=5854) | bc++=61139 bc--=145959 inv=246247
[DSB @ 2000000 calls] bc=8 isBypassOn=false| real=898060 virt=68987 notrack=1032952 | touchRes=163669(eff=147707,ineff=15962) resetRes=54269(ineff=48123,eff=6146) | bc++=64085 bc--=153853 inv=258850
Exiting @ tick 27241827649500 because a thread reached the max instruction count
