warn: The `get_runtime_isa` function is deprecated. Please migrate away from using this function.
warn: The se.py script is deprecated. It will be removed in future releases of  gem5.
warn: The `get_runtime_isa` function is deprecated. Please migrate away from using this function.
Global frequency set at 1000000000000 ticks per second
src/base/statistics.hh:279: warn: One of the stats is a legacy stat. Legacy stat is a stat that does not belong to any statistics::Group. Legacy stat is deprecated.
src/base/remote_gdb.cc:418: warn: Sockets disabled, not accepting gdb connections
src/sim/process.cc:396: warn: Checkpoints for pipes, device drivers and sockets do not work.
gem5 Simulator System.  https://www.gem5.org
gem5 is copyrighted software; use the --copyright option for details.

gem5 version 23.0.0.1
gem5 compiled Apr  6 2026 01:50:35
gem5 started Apr  6 2026 08:03:52
gem5 executing on b49ce2a326be, pid 159054
command line: /opt/gem5/build/X86/gem5.opt --outdir=/workspace/results_l3/1MB/policy1Config2/cam4 /workspace/configs/run_spec_l3.py --rp-type=DSBRP --l3-size=1MB --l3-assoc=16 --cpu-type=DerivO3CPU --cmd=./cam4_s_base.gem5-x86 --options= --mem-size=8GB --maxinst=250000000 --caches --l2cache --l1d_size=32kB --l1i_size=32kB --l1d_assoc=8 --l1i_assoc=8 --l2_size=256kB --l2_assoc=8 --checkpoint-restore=1 --checkpoint-dir=/workspace/checkpoints/cam4/m5out --restore-with-cpu=AtomicSimpleCPU --standard-switch=1 --warmup-insts=50000000 --dsb-enable-bypass=true --dsb-enable-aging=true --dsb-bypass-counter=6 --dsb-virtual-bypass-counter=3 --dsb-random-promotion=0 --dsb-minimum-bypass-counter=12

info: Standard input is not a terminal, disabling listeners.
Replacement policy: DSBRP
L1I size: 32kB, assoc: 8
L1D size: 32kB, assoc: 8
L2 size: 256kB, assoc: 8
L3 size: 1MB, L3 assoc: 16
Switch at instruction count:1
src/sim/simulate.cc:194: info: Entering event queue @ 25337984014000.  Starting simulation...
src/sim/power_state.cc:105: warn: PowerState: Already in the requested power state, request ignored
Switched CPUS @ tick 25337984015500
switching cpus
Switch at instruction count:50000000
src/sim/simulate.cc:194: info: Entering event queue @ 25337984015500.  Starting simulation...
[DSB @ 100000 calls] bc=12 isBypassOn=false| real=68 virt=12424 notrack=87507 | touchRes=7826(eff=19,ineff=7807) resetRes=124(ineff=6,eff=118) | bc++=7813 bc--=137 inv=80
[DSB @ 200000 calls] bc=12 isBypassOn=false| real=68 virt=24870 notrack=175061 | touchRes=15226(eff=19,ineff=15207) resetRes=124(ineff=6,eff=118) | bc++=15213 bc--=137 inv=80
[DSB @ 300000 calls] bc=12 isBypassOn=false| real=68 virt=37373 notrack=262558 | touchRes=22564(eff=19,ineff=22545) resetRes=124(ineff=6,eff=118) | bc++=22551 bc--=137 inv=80
[DSB @ 400000 calls] bc=12 isBypassOn=false| real=68 virt=49784 notrack=350147 | touchRes=29923(eff=19,ineff=29904) resetRes=124(ineff=6,eff=118) | bc++=29910 bc--=137 inv=81
[DSB @ 500000 calls] bc=12 isBypassOn=false| real=68 virt=62301 notrack=437630 | touchRes=37312(eff=19,ineff=37293) resetRes=124(ineff=6,eff=118) | bc++=37299 bc--=137 inv=81
src/sim/simulate.cc:194: info: Entering event queue @ 25488481919000.  Starting simulation...
Switching CPUS @ tick 25488481919000
Simulation ends instruction count:250000000
switching cpus
**** REAL SIMULATION ****
src/sim/simulate.cc:194: info: Entering event queue @ 25488482062750.  Starting simulation...
[DSB @ 600000 calls] bc=12 isBypassOn=false| real=74 virt=74797 notrack=525128 | touchRes=46100(eff=19,ineff=46081) resetRes=372(ineff=6,eff=366) | bc++=46087 bc--=385 inv=163
[DSB @ 700000 calls] bc=12 isBypassOn=false| real=74 virt=87349 notrack=612576 | touchRes=53326(eff=19,ineff=53307) resetRes=444(ineff=6,eff=438) | bc++=53313 bc--=457 inv=188
[DSB @ 800000 calls] bc=12 isBypassOn=false| real=74 virt=99820 notrack=700105 | touchRes=60623(eff=19,ineff=60604) resetRes=444(ineff=6,eff=438) | bc++=60610 bc--=457 inv=188
[DSB @ 900000 calls] bc=12 isBypassOn=false| real=74 virt=112554 notrack=787371 | touchRes=67945(eff=19,ineff=67926) resetRes=444(ineff=6,eff=438) | bc++=67932 bc--=457 inv=190
[DSB @ 1000000 calls] bc=12 isBypassOn=false| real=74 virt=125138 notrack=874787 | touchRes=75299(eff=19,ineff=75280) resetRes=444(ineff=6,eff=438) | bc++=75286 bc--=457 inv=192
[DSB @ 1100000 calls] bc=12 isBypassOn=false| real=147 virt=137545 notrack=962307 | touchRes=83259(eff=20,ineff=83239) resetRes=719(ineff=11,eff=708) | bc++=83250 bc--=728 inv=304
[DSB @ 1200000 calls] bc=12 isBypassOn=false| real=148 virt=149845 notrack=1050006 | touchRes=91180(eff=20,ineff=91160) resetRes=834(ineff=11,eff=823) | bc++=91171 bc--=843 inv=372
[DSB @ 1300000 calls] bc=12 isBypassOn=false| real=148 virt=162198 notrack=1137653 | touchRes=98502(eff=20,ineff=98482) resetRes=834(ineff=11,eff=823) | bc++=98493 bc--=843 inv=374
[DSB @ 1400000 calls] bc=12 isBypassOn=false| real=148 virt=174910 notrack=1224941 | touchRes=105869(eff=20,ineff=105849) resetRes=834(ineff=11,eff=823) | bc++=105860 bc--=843 inv=375
[DSB @ 1500000 calls] bc=12 isBypassOn=false| real=148 virt=187083 notrack=1312768 | touchRes=113141(eff=20,ineff=113121) resetRes=834(ineff=11,eff=823) | bc++=113132 bc--=843 inv=376
[DSB @ 1600000 calls] bc=12 isBypassOn=false| real=148 virt=199593 notrack=1400258 | touchRes=120506(eff=20,ineff=120486) resetRes=834(ineff=11,eff=823) | bc++=120497 bc--=843 inv=379
Exiting @ tick 25666595142500 because a thread reached the max instruction count
