warn: The `get_runtime_isa` function is deprecated. Please migrate away from using this function.
warn: The se.py script is deprecated. It will be removed in future releases of  gem5.
warn: The `get_runtime_isa` function is deprecated. Please migrate away from using this function.
Global frequency set at 1000000000000 ticks per second
src/base/statistics.hh:279: warn: One of the stats is a legacy stat. Legacy stat is a stat that does not belong to any statistics::Group. Legacy stat is deprecated.
src/base/remote_gdb.cc:418: warn: Sockets disabled, not accepting gdb connections
src/sim/process.cc:396: warn: Checkpoints for pipes, device drivers and sockets do not work.
gem5 Simulator System.  https://www.gem5.org
gem5 is copyrighted software; use the --copyright option for details.

gem5 version 23.0.0.1
gem5 compiled Apr  6 2026 01:50:35
gem5 started Apr  6 2026 14:32:54
gem5 executing on b49ce2a326be, pid 229267
command line: /opt/gem5/build/X86/gem5.opt --outdir=/workspace/results_l3/2MB/policy1Config2/omnetpp /workspace/configs/run_spec_l3.py --rp-type=DSBRP --l3-size=2MB --l3-assoc=16 --cpu-type=DerivO3CPU --cmd=./omnetpp_s_base.gem5-x86 '--options=-c General -r 0' --mem-size=8GB --maxinst=250000000 --caches --l2cache --l1d_size=32kB --l1i_size=32kB --l1d_assoc=8 --l1i_assoc=8 --l2_size=256kB --l2_assoc=8 --checkpoint-restore=1 --checkpoint-dir=/workspace/checkpoints/omnetpp/m5out --restore-with-cpu=AtomicSimpleCPU --standard-switch=1 --warmup-insts=50000000 --dsb-enable-bypass=true --dsb-enable-aging=true --dsb-bypass-counter=6 --dsb-virtual-bypass-counter=3 --dsb-random-promotion=0 --dsb-minimum-bypass-counter=12

info: Standard input is not a terminal, disabling listeners.
Replacement policy: DSBRP
L1I size: 32kB, assoc: 8
L1D size: 32kB, assoc: 8
L2 size: 256kB, assoc: 8
L3 size: 2MB, L3 assoc: 16
Switch at instruction count:1
src/sim/simulate.cc:194: info: Entering event queue @ 27633443439000.  Starting simulation...
src/sim/power_state.cc:105: warn: PowerState: Already in the requested power state, request ignored
Switched CPUS @ tick 27633443440000
switching cpus
Switch at instruction count:50000000
src/sim/simulate.cc:194: info: Entering event queue @ 27633443440000.  Starting simulation...
[DSB @ 100000 calls] bc=12 isBypassOn=false| real=28 virt=12410 notrack=87561 | touchRes=10213(eff=14,ineff=10199) resetRes=74(ineff=4,eff=70) | bc++=10203 bc--=84 inv=3
[DSB @ 200000 calls] bc=12 isBypassOn=false| real=28 virt=24892 notrack=175079 | touchRes=20767(eff=14,ineff=20753) resetRes=170(ineff=4,eff=166) | bc++=20757 bc--=180 inv=11
[DSB @ 300000 calls] bc=12 isBypassOn=false| real=28 virt=37379 notrack=262592 | touchRes=31323(eff=14,ineff=31309) resetRes=260(ineff=4,eff=256) | bc++=31313 bc--=270 inv=38
[DSB @ 400000 calls] bc=12 isBypassOn=false| real=29 virt=49805 notrack=350165 | touchRes=41905(eff=14,ineff=41891) resetRes=349(ineff=4,eff=345) | bc++=41895 bc--=359 inv=71
src/sim/simulate.cc:194: info: Entering event queue @ 27784051613500.  Starting simulation...
Switching CPUS @ tick 27784051613500
Simulation ends instruction count:250000000
switching cpus
**** REAL SIMULATION ****
src/sim/simulate.cc:194: info: Entering event queue @ 27784052038500.  Starting simulation...
[DSB @ 500000 calls] bc=12 isBypassOn=false| real=29 virt=62460 notrack=437510 | touchRes=52613(eff=14,ineff=52599) resetRes=462(ineff=4,eff=458) | bc++=52603 bc--=472 inv=119
[DSB @ 600000 calls] bc=12 isBypassOn=false| real=29 virt=74988 notrack=524982 | touchRes=63308(eff=14,ineff=63294) resetRes=597(ineff=4,eff=593) | bc++=63298 bc--=607 inv=177
[DSB @ 700000 calls] bc=12 isBypassOn=false| real=31 virt=87763 notrack=612205 | touchRes=74095(eff=14,ineff=74081) resetRes=736(ineff=4,eff=732) | bc++=74085 bc--=746 inv=261
[DSB @ 800000 calls] bc=12 isBypassOn=false| real=31 virt=100307 notrack=699661 | touchRes=84695(eff=14,ineff=84681) resetRes=895(ineff=4,eff=891) | bc++=84685 bc--=905 inv=358
[DSB @ 900000 calls] bc=12 isBypassOn=false| real=31 virt=112656 notrack=787312 | touchRes=95115(eff=14,ineff=95101) resetRes=1098(ineff=4,eff=1094) | bc++=95105 bc--=1108 inv=446
[DSB @ 1000000 calls] bc=12 isBypassOn=false| real=31 virt=125148 notrack=874820 | touchRes=105556(eff=14,ineff=105542) resetRes=1303(ineff=4,eff=1299) | bc++=105546 bc--=1313 inv=536
[DSB @ 1100000 calls] bc=12 isBypassOn=false| real=31 virt=137528 notrack=962440 | touchRes=115880(eff=14,ineff=115866) resetRes=1472(ineff=4,eff=1468) | bc++=115870 bc--=1482 inv=657
[DSB @ 1200000 calls] bc=12 isBypassOn=false| real=32 virt=150103 notrack=1049864 | touchRes=126551(eff=14,ineff=126537) resetRes=1615(ineff=4,eff=1611) | bc++=126541 bc--=1625 inv=749
[DSB @ 1300000 calls] bc=12 isBypassOn=false| real=33 virt=162737 notrack=1137229 | touchRes=137179(eff=14,ineff=137165) resetRes=1808(ineff=4,eff=1804) | bc++=137169 bc--=1818 inv=862
[DSB @ 1400000 calls] bc=12 isBypassOn=false| real=33 virt=175262 notrack=1224704 | touchRes=147642(eff=14,ineff=147628) resetRes=2030(ineff=4,eff=2026) | bc++=147632 bc--=2040 inv=958
[DSB @ 1500000 calls] bc=12 isBypassOn=false| real=33 virt=187831 notrack=1312135 | touchRes=158158(eff=14,ineff=158144) resetRes=2223(ineff=4,eff=2219) | bc++=158148 bc--=2233 inv=1047
[DSB @ 1600000 calls] bc=12 isBypassOn=false| real=34 virt=200404 notrack=1399561 | touchRes=168704(eff=14,ineff=168690) resetRes=2409(ineff=4,eff=2405) | bc++=168694 bc--=2419 inv=1150
[DSB @ 1700000 calls] bc=12 isBypassOn=false| real=34 virt=213007 notrack=1486958 | touchRes=179222(eff=14,ineff=179208) resetRes=2622(ineff=4,eff=2618) | bc++=179212 bc--=2632 inv=1256
[DSB @ 1800000 calls] bc=12 isBypassOn=false| real=34 virt=225445 notrack=1574520 | touchRes=189620(eff=14,ineff=189606) resetRes=2812(ineff=4,eff=2808) | bc++=189610 bc--=2822 inv=1374
[DSB @ 1900000 calls] bc=12 isBypassOn=false| real=34 virt=238059 notrack=1661906 | touchRes=200223(eff=14,ineff=200209) resetRes=3005(ineff=4,eff=3001) | bc++=200213 bc--=3015 inv=1479
[DSB @ 2000000 calls] bc=12 isBypassOn=false| real=34 virt=250724 notrack=1749241 | touchRes=210800(eff=14,ineff=210786) resetRes=3176(ineff=4,eff=3172) | bc++=210790 bc--=3186 inv=1592
[DSB @ 2100000 calls] bc=12 isBypassOn=false| real=34 virt=263246 notrack=1836719 | touchRes=221343(eff=14,ineff=221329) resetRes=3342(ineff=4,eff=3338) | bc++=221333 bc--=3352 inv=1670
[DSB @ 2200000 calls] bc=12 isBypassOn=false| real=35 virt=275585 notrack=1924379 | touchRes=231737(eff=14,ineff=231723) resetRes=3513(ineff=4,eff=3509) | bc++=231727 bc--=3523 inv=1759
[DSB @ 2300000 calls] bc=12 isBypassOn=false| real=35 virt=288146 notrack=2011818 | touchRes=242321(eff=14,ineff=242307) resetRes=3712(ineff=4,eff=3708) | bc++=242311 bc--=3722 inv=1842
[DSB @ 2400000 calls] bc=12 isBypassOn=false| real=35 virt=300693 notrack=2099271 | touchRes=252840(eff=14,ineff=252826) resetRes=3886(ineff=4,eff=3882) | bc++=252830 bc--=3896 inv=1934
[DSB @ 2500000 calls] bc=12 isBypassOn=false| real=35 virt=313304 notrack=2186660 | touchRes=263537(eff=14,ineff=263523) resetRes=4029(ineff=4,eff=4025) | bc++=263527 bc--=4039 inv=2007
[DSB @ 2600000 calls] bc=12 isBypassOn=false| real=35 virt=325845 notrack=2274119 | touchRes=274204(eff=14,ineff=274190) resetRes=4164(ineff=4,eff=4160) | bc++=274194 bc--=4174 inv=2074
[DSB @ 2700000 calls] bc=12 isBypassOn=false| real=35 virt=338180 notrack=2361784 | touchRes=284705(eff=14,ineff=284691) resetRes=4316(ineff=4,eff=4312) | bc++=284695 bc--=4326 inv=2159
Exiting @ tick 28028638830000 because a thread reached the max instruction count
