warn: The `get_runtime_isa` function is deprecated. Please migrate away from using this function.
warn: The se.py script is deprecated. It will be removed in future releases of  gem5.
warn: The `get_runtime_isa` function is deprecated. Please migrate away from using this function.
Global frequency set at 1000000000000 ticks per second
src/base/statistics.hh:279: warn: One of the stats is a legacy stat. Legacy stat is a stat that does not belong to any statistics::Group. Legacy stat is deprecated.
src/base/remote_gdb.cc:418: warn: Sockets disabled, not accepting gdb connections
src/sim/process.cc:396: warn: Checkpoints for pipes, device drivers and sockets do not work.
gem5 Simulator System.  https://www.gem5.org
gem5 is copyrighted software; use the --copyright option for details.

gem5 version 23.0.0.1
gem5 compiled Apr  6 2026 01:50:35
gem5 started Apr  6 2026 03:09:07
gem5 executing on b49ce2a326be, pid 108644
command line: /opt/gem5/build/X86/gem5.opt --outdir=/workspace/results_l3/1MB/policy0Config2/omnetpp /workspace/configs/run_spec_l3.py --rp-type=DSBRP --l3-size=1MB --l3-assoc=16 --cpu-type=DerivO3CPU --cmd=./omnetpp_s_base.gem5-x86 '--options=-c General -r 0' --mem-size=8GB --maxinst=250000000 --caches --l2cache --l1d_size=32kB --l1i_size=32kB --l1d_assoc=8 --l1i_assoc=8 --l2_size=256kB --l2_assoc=8 --checkpoint-restore=1 --checkpoint-dir=/workspace/checkpoints/omnetpp/m5out --restore-with-cpu=AtomicSimpleCPU --standard-switch=1 --warmup-insts=50000000 --dsb-enable-bypass=true --dsb-enable-aging=false --dsb-bypass-counter=6 --dsb-virtual-bypass-counter=3 --dsb-random-promotion=0 --dsb-minimum-bypass-counter=12

info: Standard input is not a terminal, disabling listeners.
Replacement policy: DSBRP
L1I size: 32kB, assoc: 8
L1D size: 32kB, assoc: 8
L2 size: 256kB, assoc: 8
L3 size: 1MB, L3 assoc: 16
Switch at instruction count:1
src/sim/simulate.cc:194: info: Entering event queue @ 27633443439000.  Starting simulation...
src/sim/power_state.cc:105: warn: PowerState: Already in the requested power state, request ignored
Switched CPUS @ tick 27633443440000
switching cpus
Switch at instruction count:50000000
src/sim/simulate.cc:194: info: Entering event queue @ 27633443440000.  Starting simulation...
[DSB @ 100000 calls] bc=0 isBypassOn=true| real=64756 virt=4419 notrack=30824 | touchRes=5043(eff=3810,ineff=1233) resetRes=610(ineff=384,eff=226) | bc++=1617 bc--=4036 inv=5492
[DSB @ 200000 calls] bc=0 isBypassOn=true| real=153006 virt=5821 notrack=41172 | touchRes=9834(eff=8586,ineff=1248) resetRes=1275(ineff=1004,eff=271) | bc++=2252 bc--=8857 inv=12925
[DSB @ 300000 calls] bc=1 isBypassOn=true| real=241324 virt=7301 notrack=51374 | touchRes=14467(eff=13197,ineff=1270) resetRes=1933(ineff=1632,eff=301) | bc++=2902 bc--=13498 inv=20209
[DSB @ 400000 calls] bc=0 isBypassOn=true| real=328450 virt=8925 notrack=62624 | touchRes=19126(eff=17842,ineff=1284) resetRes=2605(ineff=2269,eff=336) | bc++=3553 bc--=18178 inv=27643
[DSB @ 500000 calls] bc=0 isBypassOn=true| real=416792 virt=10425 notrack=72782 | touchRes=23764(eff=22465,ineff=1299) resetRes=3219(ineff=2852,eff=367) | bc++=4151 bc--=22832 inv=34612
[DSB @ 600000 calls] bc=1 isBypassOn=true| real=503497 virt=12051 notrack=84451 | touchRes=28807(eff=27484,ineff=1323) resetRes=3970(ineff=3567,eff=403) | bc++=4890 bc--=27887 inv=42768
[DSB @ 700000 calls] bc=3 isBypassOn=true| real=592502 virt=13440 notrack=94057 | touchRes=33575(eff=32232,ineff=1343) resetRes=4707(ineff=4273,eff=434) | bc++=5616 bc--=32666 inv=49849
src/sim/simulate.cc:194: info: Entering event queue @ 27792586741500.  Starting simulation...
Switching CPUS @ tick 27792586741500
Simulation ends instruction count:250000000
switching cpus
**** REAL SIMULATION ****
src/sim/simulate.cc:194: info: Entering event queue @ 27792586986250.  Starting simulation...
[DSB @ 800000 calls] bc=3 isBypassOn=true| real=680178 virt=15016 notrack=104805 | touchRes=38636(eff=37271,ineff=1365) resetRes=5455(ineff=4967,eff=488) | bc++=6332 bc--=37759 inv=57659
[DSB @ 900000 calls] bc=1 isBypassOn=true| real=769305 virt=16352 notrack=114342 | touchRes=43416(eff=42031,ineff=1385) resetRes=6114(ineff=5592,eff=522) | bc++=6977 bc--=42553 inv=64510
[DSB @ 1000000 calls] bc=0 isBypassOn=true| real=858972 virt=17663 notrack=123364 | touchRes=48113(eff=46706,ineff=1407) resetRes=6734(ineff=6195,eff=539) | bc++=7602 bc--=47245 inv=71377
[DSB @ 1100000 calls] bc=0 isBypassOn=true| real=946403 virt=19232 notrack=134364 | touchRes=53047(eff=51614,ineff=1433) resetRes=7460(ineff=6880,eff=580) | bc++=8313 bc--=52194 inv=79161
[DSB @ 1200000 calls] bc=0 isBypassOn=true| real=1035174 virt=20635 notrack=144190 | touchRes=57921(eff=56471,ineff=1450) resetRes=8173(ineff=7555,eff=618) | bc++=9005 bc--=57089 inv=86431
[DSB @ 1300000 calls] bc=0 isBypassOn=true| real=1124244 virt=22010 notrack=153745 | touchRes=62650(eff=61190,ineff=1460) resetRes=8831(ineff=8183,eff=648) | bc++=9643 bc--=61838 inv=93520
[DSB @ 1400000 calls] bc=0 isBypassOn=true| real=1214996 virt=23188 notrack=161815 | touchRes=67136(eff=65659,ineff=1477) resetRes=9486(ineff=8815,eff=671) | bc++=10292 bc--=66330 inv=99806
[DSB @ 1500000 calls] bc=0 isBypassOn=true| real=1301359 virt=24882 notrack=173758 | touchRes=71849(eff=70349,ineff=1500) resetRes=10087(ineff=9373,eff=714) | bc++=10873 bc--=71063 inv=107162
[DSB @ 1600000 calls] bc=0 isBypassOn=true| real=1390948 virt=26199 notrack=182852 | touchRes=76633(eff=75118,ineff=1515) resetRes=10774(ineff=10017,eff=757) | bc++=11532 bc--=75875 inv=114063
[DSB @ 1700000 calls] bc=0 isBypassOn=true| real=1480379 virt=27520 notrack=192100 | touchRes=81448(eff=79912,ineff=1536) resetRes=11449(ineff=10662,eff=787) | bc++=12198 bc--=80699 inv=120911
[DSB @ 1800000 calls] bc=1 isBypassOn=true| real=1568367 virt=29044 notrack=202588 | touchRes=86461(eff=84903,ineff=1558) resetRes=12112(ineff=11291,eff=821) | bc++=12849 bc--=85724 inv=128479
[DSB @ 1900000 calls] bc=0 isBypassOn=true| real=1658806 virt=30257 notrack=210936 | touchRes=90889(eff=89315,ineff=1574) resetRes=12739(ineff=11876,eff=863) | bc++=13450 bc--=90178 inv=134945
[DSB @ 2000000 calls] bc=0 isBypassOn=true| real=1747426 virt=31684 notrack=220889 | touchRes=95806(eff=94213,ineff=1593) resetRes=13455(ineff=12545,eff=910) | bc++=14138 bc--=95123 inv=142280
[DSB @ 2100000 calls] bc=0 isBypassOn=true| real=1836550 virt=33102 notrack=230347 | touchRes=100689(eff=99079,ineff=1610) resetRes=14140(ineff=13195,eff=945) | bc++=14805 bc--=100024 inv=149314
[DSB @ 2200000 calls] bc=0 isBypassOn=true| real=1925965 virt=34418 notrack=239616 | touchRes=105484(eff=103861,ineff=1623) resetRes=14833(ineff=13860,eff=973) | bc++=15483 bc--=104834 inv=156143
[DSB @ 2300000 calls] bc=0 isBypassOn=true| real=2015753 virt=35740 notrack=248506 | touchRes=110116(eff=108481,ineff=1635) resetRes=15510(ineff=14501,eff=1009) | bc++=16136 bc--=109490 inv=162875
[DSB @ 2400000 calls] bc=0 isBypassOn=true| real=2103752 virt=37257 notrack=258990 | touchRes=115130(eff=113477,ineff=1653) resetRes=16272(ineff=15212,eff=1060) | bc++=16865 bc--=114537 inv=170422
[DSB @ 2500000 calls] bc=0 isBypassOn=true| real=2187870 virt=39211 notrack=272918 | touchRes=119765(eff=118090,ineff=1675) resetRes=16900(ineff=15810,eff=1090) | bc++=17485 bc--=119180 inv=177568
[DSB @ 2600000 calls] bc=0 isBypassOn=true| real=2276966 virt=40555 notrack=282478 | touchRes=124468(eff=122775,ineff=1693) resetRes=17535(ineff=16416,eff=1119) | bc++=18109 bc--=123894 inv=184632
[DSB @ 2700000 calls] bc=0 isBypassOn=true| real=2366129 virt=41870 notrack=292000 | touchRes=129264(eff=127554,ineff=1710) resetRes=18224(ineff=17076,eff=1148) | bc++=18786 bc--=128702 inv=191804
[DSB @ 2800000 calls] bc=0 isBypassOn=true| real=2455789 virt=43138 notrack=301072 | touchRes=134041(eff=132316,ineff=1725) resetRes=18895(ineff=17720,eff=1175) | bc++=19445 bc--=133491 inv=198748
[DSB @ 2900000 calls] bc=0 isBypassOn=true| real=2544109 virt=44545 notrack=311345 | touchRes=138905(eff=137167,ineff=1738) resetRes=19588(ineff=18378,eff=1210) | bc++=20116 bc--=138377 inv=206298
[DSB @ 3000000 calls] bc=0 isBypassOn=true| real=2633212 virt=45867 notrack=320920 | touchRes=143755(eff=142006,ineff=1749) resetRes=20230(ineff=18985,eff=1245) | bc++=20734 bc--=143251 inv=213464
[DSB @ 3100000 calls] bc=0 isBypassOn=true| real=2723305 virt=47041 notrack=329653 | touchRes=148454(eff=146690,ineff=1764) resetRes=20905(ineff=19634,eff=1271) | bc++=21398 bc--=147961 inv=220159
[DSB @ 3200000 calls] bc=2 isBypassOn=true| real=2812028 virt=48503 notrack=339468 | touchRes=153372(eff=151584,ineff=1788) resetRes=21591(ineff=20290,eff=1301) | bc++=22078 bc--=152885 inv=227449
[DSB @ 3300000 calls] bc=0 isBypassOn=true| real=2898146 virt=50237 notrack=351616 | touchRes=158306(eff=156504,ineff=1802) resetRes=22272(ineff=20929,eff=1343) | bc++=22731 bc--=157847 inv=235116
[DSB @ 3400000 calls] bc=0 isBypassOn=true| real=2988481 virt=51478 notrack=360040 | touchRes=162940(eff=161125,ineff=1815) resetRes=22936(ineff=21559,eff=1377) | bc++=23374 bc--=162502 inv=241618
[DSB @ 3500000 calls] bc=0 isBypassOn=true| real=3077997 virt=52796 notrack=369206 | touchRes=167630(eff=165801,ineff=1829) resetRes=23666(ineff=22262,eff=1404) | bc++=24091 bc--=167205 inv=248598
[DSB @ 3600000 calls] bc=0 isBypassOn=true| real=3167554 virt=54102 notrack=378343 | touchRes=172373(eff=170528,ineff=1845) resetRes=24332(ineff=22898,eff=1434) | bc++=24743 bc--=171962 inv=255258
[DSB @ 3700000 calls] bc=0 isBypassOn=true| real=3257812 virt=55329 notrack=386858 | touchRes=177022(eff=175158,ineff=1864) resetRes=25028(ineff=23552,eff=1476) | bc++=25416 bc--=176634 inv=261810
[DSB @ 3800000 calls] bc=0 isBypassOn=true| real=3345371 virt=56957 notrack=397671 | touchRes=181983(eff=180099,ineff=1884) resetRes=25693(ineff=24170,eff=1523) | bc++=26054 bc--=181622 inv=269042
[DSB @ 3900000 calls] bc=2 isBypassOn=true| real=3435843 virt=58142 notrack=406014 | touchRes=186519(eff=184619,ineff=1900) resetRes=26325(ineff=24776,eff=1549) | bc++=26676 bc--=186168 inv=275403
[DSB @ 4000000 calls] bc=0 isBypassOn=true| real=3525131 virt=59563 notrack=415305 | touchRes=191101(eff=189185,ineff=1916) resetRes=26956(ineff=25380,eff=1576) | bc++=27296 bc--=190761 inv=282290
[DSB @ 4100000 calls] bc=0 isBypassOn=true| real=3614685 virt=60832 notrack=424482 | touchRes=195851(eff=193925,ineff=1926) resetRes=27583(ineff=25980,eff=1603) | bc++=27906 bc--=195528 inv=289203
[DSB @ 4200000 calls] bc=1 isBypassOn=true| real=3704036 virt=62161 notrack=433802 | touchRes=200667(eff=198725,ineff=1942) resetRes=28219(ineff=26587,eff=1632) | bc++=28529 bc--=200357 inv=296151
[DSB @ 4300000 calls] bc=2 isBypassOn=true| real=3793694 virt=63480 notrack=442825 | touchRes=205386(eff=203428,ineff=1958) resetRes=28882(ineff=27206,eff=1676) | bc++=29164 bc--=205104 inv=303108
[DSB @ 4400000 calls] bc=0 isBypassOn=true| real=3882314 virt=64946 notrack=452739 | touchRes=210456(eff=208479,ineff=1977) resetRes=29614(ineff=27900,eff=1714) | bc++=29877 bc--=210193 inv=310341
[DSB @ 4500000 calls] bc=0 isBypassOn=true| real=3970872 virt=66347 notrack=462780 | touchRes=215380(eff=213387,ineff=1993) resetRes=30313(ineff=28567,eff=1746) | bc++=30560 bc--=215133 inv=317759
[DSB @ 4600000 calls] bc=0 isBypassOn=true| real=4059219 virt=67841 notrack=472939 | touchRes=220385(eff=218371,ineff=2014) resetRes=31003(ineff=29218,eff=1785) | bc++=31232 bc--=220156 inv=325152
[DSB @ 4700000 calls] bc=0 isBypassOn=true| real=4147466 virt=69297 notrack=483236 | touchRes=225472(eff=223433,ineff=2039) resetRes=31714(ineff=29900,eff=1814) | bc++=31939 bc--=225247 inv=332519
[DSB @ 4800000 calls] bc=1 isBypassOn=true| real=4235599 virt=70756 notrack=493644 | touchRes=230473(eff=228412,ineff=2061) resetRes=32464(ineff=30605,eff=1859) | bc++=32666 bc--=230271 inv=340050
[DSB @ 4900000 calls] bc=1 isBypassOn=true| real=4324754 virt=72136 notrack=503109 | touchRes=235394(eff=233314,ineff=2080) resetRes=33162(ineff=31279,eff=1883) | bc++=33359 bc--=235197 inv=347176
Exiting @ tick 28063851619000 because a thread reached the max instruction count
