warn: The `get_runtime_isa` function is deprecated. Please migrate away from using this function.
warn: The se.py script is deprecated. It will be removed in future releases of  gem5.
warn: The `get_runtime_isa` function is deprecated. Please migrate away from using this function.
Global frequency set at 1000000000000 ticks per second
src/mem/dram_interface.cc:690: warn: DRAM device capacity (8192 Mbytes) does not match the address range assigned (16384 Mbytes)
src/base/statistics.hh:279: warn: One of the stats is a legacy stat. Legacy stat is a stat that does not belong to any statistics::Group. Legacy stat is deprecated.
src/base/remote_gdb.cc:418: warn: Sockets disabled, not accepting gdb connections
src/sim/process.cc:396: warn: Checkpoints for pipes, device drivers and sockets do not work.
gem5 Simulator System.  https://www.gem5.org
gem5 is copyrighted software; use the --copyright option for details.

gem5 version 23.0.0.1
gem5 compiled Apr  6 2026 01:50:35
gem5 started Apr  7 2026 12:04:45
gem5 executing on b49ce2a326be, pid 100058
command line: /opt/gem5/build/X86/gem5.opt --outdir=/workspace/results_l3/4MB/policy0Config3/roms /workspace/configs/run_spec_l3.py --rp-type=DSBRP --l3-size=4MB --l3-assoc=16 --cpu-type=DerivO3CPU --cmd=./sroms_base.gem5-x86 --options= --mem-size=16GB --maxinst=250000000 --caches --l2cache --l1d_size=32kB --l1i_size=32kB --l1d_assoc=8 --l1i_assoc=8 --l2_size=256kB --l2_assoc=8 --checkpoint-restore=1 --checkpoint-dir=/workspace/checkpoints/roms/m5out --restore-with-cpu=AtomicSimpleCPU --standard-switch=1 --warmup-insts=50000000 --input=ocean_benchmark3.in --dsb-enable-bypass=true --dsb-enable-aging=false --dsb-bypass-counter=3 --dsb-virtual-bypass-counter=3 --dsb-random-promotion=0 --dsb-minimum-bypass-counter=12

info: Standard input is not a terminal, disabling listeners.
Replacement policy: DSBRP
L1I size: 32kB, assoc: 8
L1D size: 32kB, assoc: 8
L2 size: 256kB, assoc: 8
L3 size: 4MB, L3 assoc: 16
Switch at instruction count:1
src/sim/simulate.cc:194: info: Entering event queue @ 26962283379000.  Starting simulation...
src/sim/power_state.cc:105: warn: PowerState: Already in the requested power state, request ignored
Switched CPUS @ tick 26962283380500
switching cpus
Switch at instruction count:50000000
src/sim/simulate.cc:194: info: Entering event queue @ 26962283380500.  Starting simulation...
[DSB @ 100000 calls] bc=12 isBypassOn=false| real=196 virt=12481 notrack=87322 | touchRes=10361(eff=133,ineff=10228) resetRes=333(ineff=13,eff=320) | bc++=10241 bc--=453 inv=1071
[DSB @ 200000 calls] bc=12 isBypassOn=false| real=330 virt=24965 notrack=174704 | touchRes=18435(eff=172,ineff=18263) resetRes=1344(ineff=81,eff=1263) | bc++=18344 bc--=1435 inv=4160
src/sim/simulate.cc:194: info: Entering event queue @ 27103318564500.  Starting simulation...
Switching CPUS @ tick 27103318564500
Simulation ends instruction count:250000000
switching cpus
**** REAL SIMULATION ****
src/sim/simulate.cc:194: info: Entering event queue @ 27103318803250.  Starting simulation...
[DSB @ 300000 calls] bc=12 isBypassOn=false| real=1657 virt=37292 notrack=261050 | touchRes=26645(eff=463,ineff=26182) resetRes=2651(ineff=353,eff=2298) | bc++=26535 bc--=2761 inv=7657
[DSB @ 400000 calls] bc=12 isBypassOn=false| real=3046 virt=49483 notrack=347470 | touchRes=33988(eff=817,ineff=33171) resetRes=3866(ineff=637,eff=3229) | bc++=33808 bc--=4046 inv=11938
[DSB @ 500000 calls] bc=12 isBypassOn=false| real=3367 virt=61827 notrack=434805 | touchRes=41344(eff=950,ineff=40394) resetRes=4869(ineff=768,eff=4101) | bc++=41162 bc--=5051 inv=15662
[DSB @ 600000 calls] bc=12 isBypassOn=false| real=3583 virt=74286 notrack=522130 | touchRes=49056(eff=1023,ineff=48033) resetRes=5823(ineff=877,eff=4946) | bc++=48910 bc--=5969 inv=19247
[DSB @ 700000 calls] bc=12 isBypassOn=false| real=3788 virt=86748 notrack=609463 | touchRes=56429(eff=1079,ineff=55350) resetRes=6767(ineff=977,eff=5790) | bc++=56327 bc--=6869 inv=22984
[DSB @ 800000 calls] bc=12 isBypassOn=false| real=4292 virt=99117 notrack=696590 | touchRes=63709(eff=1300,ineff=62409) resetRes=7896(ineff=1209,eff=6687) | bc++=63618 bc--=7987 inv=26890
[DSB @ 900000 calls] bc=12 isBypassOn=false| real=6406 virt=111369 notrack=782224 | touchRes=71526(eff=1875,ineff=69651) resetRes=9054(ineff=1425,eff=7629) | bc++=71076 bc--=9504 inv=31214
[DSB @ 1000000 calls] bc=12 isBypassOn=false| real=7106 virt=123938 notrack=868955 | touchRes=78586(eff=2141,ineff=76445) resetRes=10118(ineff=1582,eff=8536) | bc++=78027 bc--=10677 inv=35621
[DSB @ 1100000 calls] bc=12 isBypassOn=false| real=7769 virt=136269 notrack=955961 | touchRes=86129(eff=2382,ineff=83747) resetRes=11276(ineff=1790,eff=9486) | bc++=85537 bc--=11868 inv=39331
[DSB @ 1200000 calls] bc=12 isBypassOn=false| real=8247 virt=148651 notrack=1043101 | touchRes=92970(eff=2544,ineff=90426) resetRes=12430(ineff=2009,eff=10421) | bc++=92435 bc--=12965 inv=43569
[DSB @ 1300000 calls] bc=12 isBypassOn=false| real=8301 virt=161103 notrack=1130595 | touchRes=100292(eff=2553,ineff=97739) resetRes=13374(ineff=2035,eff=11339) | bc++=99774 bc--=13892 inv=47285
[DSB @ 1400000 calls] bc=12 isBypassOn=false| real=11311 virt=173094 notrack=1215594 | touchRes=107803(eff=3315,ineff=104488) resetRes=14468(ineff=2297,eff=12171) | bc++=106785 bc--=15486 inv=52306
[DSB @ 1500000 calls] bc=12 isBypassOn=false| real=11675 virt=185495 notrack=1302829 | touchRes=114880(eff=3378,ineff=111502) resetRes=15524(ineff=2442,eff=13082) | bc++=113944 bc--=16460 inv=56299
Exiting @ tick 27229937893000 because a thread reached the max instruction count
