warn: The `get_runtime_isa` function is deprecated. Please migrate away from using this function.
warn: The se.py script is deprecated. It will be removed in future releases of  gem5.
warn: The `get_runtime_isa` function is deprecated. Please migrate away from using this function.
Global frequency set at 1000000000000 ticks per second
src/base/statistics.hh:279: warn: One of the stats is a legacy stat. Legacy stat is a stat that does not belong to any statistics::Group. Legacy stat is deprecated.
src/base/remote_gdb.cc:418: warn: Sockets disabled, not accepting gdb connections
src/sim/process.cc:396: warn: Checkpoints for pipes, device drivers and sockets do not work.
gem5 Simulator System.  https://www.gem5.org
gem5 is copyrighted software; use the --copyright option for details.

gem5 version 23.0.0.1
gem5 compiled Apr  6 2026 01:50:35
gem5 started Apr  6 2026 04:25:50
gem5 executing on b49ce2a326be, pid 122988
command line: /opt/gem5/build/X86/gem5.opt --outdir=/workspace/results_l3/1MB/policy0Config3/omnetpp /workspace/configs/run_spec_l3.py --rp-type=DSBRP --l3-size=1MB --l3-assoc=16 --cpu-type=DerivO3CPU --cmd=./omnetpp_s_base.gem5-x86 '--options=-c General -r 0' --mem-size=8GB --maxinst=250000000 --caches --l2cache --l1d_size=32kB --l1i_size=32kB --l1d_assoc=8 --l1i_assoc=8 --l2_size=256kB --l2_assoc=8 --checkpoint-restore=1 --checkpoint-dir=/workspace/checkpoints/omnetpp/m5out --restore-with-cpu=AtomicSimpleCPU --standard-switch=1 --warmup-insts=50000000 --dsb-enable-bypass=true --dsb-enable-aging=false --dsb-bypass-counter=3 --dsb-virtual-bypass-counter=3 --dsb-random-promotion=0 --dsb-minimum-bypass-counter=12

info: Standard input is not a terminal, disabling listeners.
Replacement policy: DSBRP
L1I size: 32kB, assoc: 8
L1D size: 32kB, assoc: 8
L2 size: 256kB, assoc: 8
L3 size: 1MB, L3 assoc: 16
Switch at instruction count:1
src/sim/simulate.cc:194: info: Entering event queue @ 27633443439000.  Starting simulation...
src/sim/power_state.cc:105: warn: PowerState: Already in the requested power state, request ignored
Switched CPUS @ tick 27633443440000
switching cpus
Switch at instruction count:50000000
src/sim/simulate.cc:194: info: Entering event queue @ 27633443440000.  Starting simulation...
[DSB @ 100000 calls] bc=0 isBypassOn=true| real=64108 virt=4487 notrack=31404 | touchRes=4894(eff=3648,ineff=1246) resetRes=630(ineff=413,eff=217) | bc++=1659 bc--=3865 inv=5329
[DSB @ 200000 calls] bc=0 isBypassOn=true| real=152760 virt=5836 notrack=41403 | touchRes=9513(eff=8252,ineff=1261) resetRes=1279(ineff=1025,eff=254) | bc++=2286 bc--=8506 inv=12707
[DSB @ 300000 calls] bc=0 isBypassOn=true| real=242048 virt=7212 notrack=50739 | touchRes=14175(eff=12900,ineff=1275) resetRes=1940(ineff=1652,eff=288) | bc++=2927 bc--=13188 inv=19600
[DSB @ 400000 calls] bc=1 isBypassOn=true| real=331065 virt=8626 notrack=60308 | touchRes=18887(eff=17598,ineff=1289) resetRes=2617(ineff=2301,eff=316) | bc++=3590 bc--=17914 inv=26755
[DSB @ 500000 calls] bc=0 isBypassOn=true| real=419044 virt=10093 notrack=70862 | touchRes=23562(eff=22254,ineff=1308) resetRes=3238(ineff=2889,eff=349) | bc++=4197 bc--=22603 inv=33874
[DSB @ 600000 calls] bc=0 isBypassOn=true| real=504477 virt=11878 notrack=83644 | touchRes=28537(eff=27218,ineff=1319) resetRes=3992(ineff=3614,eff=378) | bc++=4933 bc--=27596 inv=42549
[DSB @ 700000 calls] bc=0 isBypassOn=true| real=588346 virt=13868 notrack=97785 | touchRes=33552(eff=32207,ineff=1345) resetRes=4655(ineff=4241,eff=414) | bc++=5586 bc--=32621 inv=50441
src/sim/simulate.cc:194: info: Entering event queue @ 27792641156500.  Starting simulation...
Switching CPUS @ tick 27792641156500
Simulation ends instruction count:250000000
switching cpus
**** REAL SIMULATION ****
src/sim/simulate.cc:194: info: Entering event queue @ 27792641716250.  Starting simulation...
[DSB @ 800000 calls] bc=0 isBypassOn=true| real=676072 virt=15401 notrack=108526 | touchRes=38489(eff=37120,ineff=1369) resetRes=5401(ineff=4945,eff=456) | bc++=6314 bc--=37576 inv=58280
[DSB @ 900000 calls] bc=0 isBypassOn=true| real=765958 virt=16630 notrack=117411 | touchRes=43253(eff=41875,ineff=1378) resetRes=6097(ineff=5612,eff=485) | bc++=6990 bc--=42360 inv=64978
[DSB @ 1000000 calls] bc=0 isBypassOn=true| real=855771 virt=17844 notrack=126384 | touchRes=47976(eff=46577,ineff=1399) resetRes=6745(ineff=6230,eff=515) | bc++=7629 bc--=47092 inv=71813
[DSB @ 1100000 calls] bc=0 isBypassOn=true| real=943256 virt=19369 notrack=137374 | touchRes=52890(eff=51474,ineff=1416) resetRes=7500(ineff=6951,eff=549) | bc++=8367 bc--=52023 inv=79706
[DSB @ 1200000 calls] bc=0 isBypassOn=true| real=1032478 virt=20737 notrack=146784 | touchRes=57609(eff=56178,ineff=1431) resetRes=8161(ineff=7587,eff=574) | bc++=9018 bc--=56752 inv=86611
[DSB @ 1300000 calls] bc=1 isBypassOn=true| real=1121789 virt=22124 notrack=156086 | touchRes=62512(eff=61070,ineff=1442) resetRes=8858(ineff=8243,eff=615) | bc++=9685 bc--=61685 inv=93632
[DSB @ 1400000 calls] bc=0 isBypassOn=true| real=1211560 virt=23366 notrack=165073 | touchRes=67223(eff=65763,ineff=1460) resetRes=9543(ineff=8890,eff=653) | bc++=10350 bc--=66416 inv=100531
[DSB @ 1500000 calls] bc=0 isBypassOn=true| real=1301395 virt=24674 notrack=173930 | touchRes=71853(eff=70383,ineff=1470) resetRes=10220(ineff=9533,eff=687) | bc++=11003 bc--=71070 inv=107218
[DSB @ 1600000 calls] bc=1 isBypassOn=true| real=1389130 virt=26218 notrack=184651 | touchRes=76908(eff=75411,ineff=1497) resetRes=10898(ineff=10172,eff=726) | bc++=11669 bc--=76137 inv=114761
[DSB @ 1700000 calls] bc=0 isBypassOn=true| real=1477256 virt=27672 notrack=195071 | touchRes=81939(eff=80423,ineff=1516) resetRes=11625(ineff=10860,eff=765) | bc++=12376 bc--=81188 inv=122626
[DSB @ 1800000 calls] bc=0 isBypassOn=true| real=1566500 virt=29044 notrack=204455 | touchRes=86827(eff=85298,ineff=1529) resetRes=12292(ineff=11492,eff=800) | bc++=13021 bc--=86098 inv=129614
[DSB @ 1900000 calls] bc=3 isBypassOn=true| real=1656090 virt=30325 notrack=213584 | touchRes=91292(eff=89755,ineff=1537) resetRes=12926(ineff=12089,eff=837) | bc++=13626 bc--=90592 inv=136477
[DSB @ 2000000 calls] bc=0 isBypassOn=true| real=1745228 virt=31693 notrack=223078 | touchRes=96252(eff=94701,ineff=1551) resetRes=13596(ineff=12724,eff=872) | bc++=14275 bc--=95573 inv=143518
[DSB @ 2100000 calls] bc=0 isBypassOn=true| real=1833381 virt=33158 notrack=233460 | touchRes=101129(eff=99561,ineff=1568) resetRes=14274(ineff=13366,eff=908) | bc++=14934 bc--=100469 inv=151002
[DSB @ 2200000 calls] bc=0 isBypassOn=true| real=1921451 virt=34610 notrack=243938 | touchRes=106088(eff=104504,ineff=1584) resetRes=14958(ineff=14021,eff=937) | bc++=15605 bc--=105441 inv=158439
[DSB @ 2300000 calls] bc=0 isBypassOn=true| real=2011090 virt=35962 notrack=252947 | touchRes=110765(eff=109167,ineff=1598) resetRes=15619(ineff=14653,eff=966) | bc++=16251 bc--=110133 inv=165276
[DSB @ 2400000 calls] bc=0 isBypassOn=true| real=2098024 virt=37601 notrack=264374 | touchRes=115812(eff=114187,ineff=1625) resetRes=16284(ineff=15283,eff=1001) | bc++=16908 bc--=115188 inv=173135
[DSB @ 2500000 calls] bc=1 isBypassOn=true| real=2182798 virt=39485 notrack=277716 | touchRes=120517(eff=118859,ineff=1658) resetRes=16912(ineff=15872,eff=1040) | bc++=17530 bc--=119899 inv=180190
[DSB @ 2600000 calls] bc=0 isBypassOn=true| real=2273286 virt=40729 notrack=285984 | touchRes=125016(eff=123344,ineff=1672) resetRes=17509(ineff=16444,eff=1065) | bc++=18116 bc--=124409 inv=186579
[DSB @ 2700000 calls] bc=0 isBypassOn=true| real=2362778 virt=42027 notrack=295194 | touchRes=129799(eff=128116,ineff=1683) resetRes=18182(ineff=17093,eff=1089) | bc++=18776 bc--=129205 inv=193623
[DSB @ 2800000 calls] bc=0 isBypassOn=true| real=2451712 virt=43364 notrack=304923 | touchRes=134467(eff=132767,ineff=1700) resetRes=18868(ineff=17746,eff=1122) | bc++=19446 bc--=133889 inv=200831
[DSB @ 2900000 calls] bc=0 isBypassOn=true| real=2539755 virt=44869 notrack=315375 | touchRes=139503(eff=137784,ineff=1719) resetRes=19551(ineff=18386,eff=1165) | bc++=20105 bc--=138949 inv=208451
[DSB @ 3000000 calls] bc=0 isBypassOn=true| real=2629009 virt=46255 notrack=324735 | touchRes=144315(eff=142578,ineff=1737) resetRes=20221(ineff=19020,eff=1201) | bc++=20757 bc--=143779 inv=215451
[DSB @ 3100000 calls] bc=0 isBypassOn=true| real=2717900 virt=47617 notrack=334482 | touchRes=149158(eff=147399,ineff=1759) resetRes=20844(ineff=19613,eff=1231) | bc++=21372 bc--=148630 inv=222620
[DSB @ 3200000 calls] bc=0 isBypassOn=true| real=2808013 virt=48924 notrack=343062 | touchRes=153753(eff=151979,ineff=1774) resetRes=21500(ineff=20242,eff=1258) | bc++=22016 bc--=153237 inv=229161
[DSB @ 3300000 calls] bc=0 isBypassOn=true| real=2895808 virt=50531 notrack=353660 | touchRes=158827(eff=157035,ineff=1792) resetRes=22201(ineff=20898,eff=1303) | bc++=22690 bc--=158338 inv=236791
[DSB @ 3400000 calls] bc=1 isBypassOn=true| real=2985030 virt=51859 notrack=363110 | touchRes=163687(eff=161880,ineff=1807) resetRes=22856(ineff=21526,eff=1330) | bc++=23333 bc--=163210 inv=243879
[DSB @ 3500000 calls] bc=0 isBypassOn=true| real=3074466 virt=53254 notrack=372279 | touchRes=168480(eff=166652,ineff=1828) resetRes=23567(ineff=22196,eff=1371) | bc++=24024 bc--=168023 inv=250863
[DSB @ 3600000 calls] bc=0 isBypassOn=true| real=3163938 virt=54588 notrack=381473 | touchRes=173265(eff=171422,ineff=1843) resetRes=24228(ineff=22818,eff=1410) | bc++=24661 bc--=172832 inv=257788
[DSB @ 3700000 calls] bc=0 isBypassOn=true| real=3252091 virt=56046 notrack=391862 | touchRes=178331(eff=176469,ineff=1862) resetRes=24878(ineff=23429,eff=1449) | bc++=25291 bc--=177918 inv=265307
[DSB @ 3800000 calls] bc=0 isBypassOn=true| real=3341692 virt=57360 notrack=400947 | touchRes=183207(eff=181329,ineff=1878) resetRes=25551(ineff=24066,eff=1485) | bc++=25944 bc--=182814 inv=272107
[DSB @ 3900000 calls] bc=0 isBypassOn=true| real=3431734 virt=58636 notrack=409629 | touchRes=187788(eff=185891,ineff=1897) resetRes=26159(ineff=24646,eff=1513) | bc++=26543 bc--=187404 inv=278714
[DSB @ 4000000 calls] bc=0 isBypassOn=true| real=3519552 virt=60154 notrack=420293 | touchRes=192517(eff=190598,ineff=1919) resetRes=26816(ineff=25263,eff=1553) | bc++=27182 bc--=192151 inv=285847
[DSB @ 4100000 calls] bc=0 isBypassOn=true| real=3609049 virt=61504 notrack=429446 | touchRes=197309(eff=195371,ineff=1938) resetRes=27479(ineff=25894,eff=1585) | bc++=27832 bc--=196956 inv=292743
[DSB @ 4200000 calls] bc=0 isBypassOn=true| real=3698524 virt=62848 notrack=438627 | touchRes=201966(eff=200013,ineff=1953) resetRes=28106(ineff=26499,eff=1607) | bc++=28452 bc--=201620 inv=299547
[DSB @ 4300000 calls] bc=3 isBypassOn=true| real=3787900 virt=64210 notrack=447889 | touchRes=206617(eff=204648,ineff=1969) resetRes=28742(ineff=27101,eff=1641) | bc++=29070 bc--=206289 inv=306500
[DSB @ 4400000 calls] bc=0 isBypassOn=true| real=3876850 virt=65551 notrack=457598 | touchRes=211631(eff=209644,ineff=1987) resetRes=29428(ineff=27747,eff=1681) | bc++=29734 bc--=211325 inv=313477
[DSB @ 4500000 calls] bc=0 isBypassOn=true| real=3965603 virt=66994 notrack=467402 | touchRes=216444(eff=214432,ineff=2012) resetRes=30098(ineff=28368,eff=1730) | bc++=30380 bc--=216162 inv=320606
[DSB @ 4600000 calls] bc=0 isBypassOn=true| real=4054661 virt=68327 notrack=477011 | touchRes=221400(eff=219373,ineff=2027) resetRes=30771(ineff=29000,eff=1771) | bc++=31027 bc--=221144 inv=327718
[DSB @ 4700000 calls] bc=0 isBypassOn=true| real=4142637 virt=69789 notrack=487573 | touchRes=226296(eff=224246,ineff=2050) resetRes=31487(ineff=29669,eff=1818) | bc++=31719 bc--=226064 inv=335456
[DSB @ 4800000 calls] bc=0 isBypassOn=true| real=4231756 virt=71210 notrack=497033 | touchRes=231212(eff=229147,ineff=2065) resetRes=32202(ineff=30351,eff=1851) | bc++=32416 bc--=230998 inv=342530
[DSB @ 4900000 calls] bc=0 isBypassOn=true| real=4321169 virt=72507 notrack=506323 | touchRes=236127(eff=234044,ineff=2083) resetRes=32904(ineff=31019,eff=1885) | bc++=33102 bc--=235929 inv=349558
Exiting @ tick 28063835464000 because a thread reached the max instruction count
