warn: The `get_runtime_isa` function is deprecated. Please migrate away from using this function.
warn: The se.py script is deprecated. It will be removed in future releases of  gem5.
warn: The `get_runtime_isa` function is deprecated. Please migrate away from using this function.
Global frequency set at 1000000000000 ticks per second
src/base/statistics.hh:279: warn: One of the stats is a legacy stat. Legacy stat is a stat that does not belong to any statistics::Group. Legacy stat is deprecated.
src/base/remote_gdb.cc:418: warn: Sockets disabled, not accepting gdb connections
src/sim/process.cc:396: warn: Checkpoints for pipes, device drivers and sockets do not work.
gem5 Simulator System.  https://www.gem5.org
gem5 is copyrighted software; use the --copyright option for details.

gem5 version 23.0.0.1
gem5 compiled Apr  6 2026 01:50:35
gem5 started Apr  6 2026 02:31:26
gem5 executing on b49ce2a326be, pid 100786
command line: /opt/gem5/build/X86/gem5.opt --outdir=/workspace/results_l3/1MB/policy0Config1/wrf /workspace/configs/run_spec_l3.py --rp-type=DSBRP --l3-size=1MB --l3-assoc=16 --cpu-type=DerivO3CPU --cmd=./wrf_s_base.gem5-x86 --options= --mem-size=8GB --maxinst=250000000 --caches --l2cache --l1d_size=32kB --l1i_size=32kB --l1d_assoc=8 --l1i_assoc=8 --l2_size=256kB --l2_assoc=8 --checkpoint-restore=1 --checkpoint-dir=/workspace/checkpoints/wrf/m5out --restore-with-cpu=AtomicSimpleCPU --standard-switch=1 --warmup-insts=50000000 --dsb-enable-bypass=true --dsb-enable-aging=false --dsb-bypass-counter=6 --dsb-virtual-bypass-counter=4 --dsb-random-promotion=0 --dsb-minimum-bypass-counter=8

info: Standard input is not a terminal, disabling listeners.
Replacement policy: DSBRP
L1I size: 32kB, assoc: 8
L1D size: 32kB, assoc: 8
L2 size: 256kB, assoc: 8
L3 size: 1MB, L3 assoc: 16
Switch at instruction count:1
src/sim/simulate.cc:194: info: Entering event queue @ 27778733914000.  Starting simulation...
src/sim/simulate.cc:194: info: Entering event queue @ 27778733915500.  Starting simulation...
src/sim/power_state.cc:105: warn: PowerState: Already in the requested power state, request ignored
Switched CPUS @ tick 27778733915500
switching cpus
Switch at instruction count:50000000
src/sim/simulate.cc:194: info: Entering event queue @ 27778733916000.  Starting simulation...
[DSB @ 100000 calls] bc=0 isBypassOn=true| real=80584 virt=1144 notrack=18271 | touchRes=2762(eff=2134,ineff=628) resetRes=26(ineff=6,eff=20) | bc++=634 bc--=2154 inv=81
[DSB @ 200000 calls] bc=0 isBypassOn=true| real=158341 virt=2546 notrack=39112 | touchRes=3370(eff=2741,ineff=629) resetRes=59(ineff=34,eff=25) | bc++=663 bc--=2766 inv=3322
[DSB @ 300000 calls] bc=0 isBypassOn=true| real=238405 virt=3755 notrack=57839 | touchRes=4168(eff=3520,ineff=648) resetRes=78(ineff=42,eff=36) | bc++=690 bc--=3556 inv=5484
[DSB @ 400000 calls] bc=6 isBypassOn=true| real=276739 virt=7584 notrack=115676 | touchRes=4891(eff=4239,ineff=652) resetRes=127(ineff=79,eff=48) | bc++=731 bc--=4287 inv=15753
[DSB @ 500000 calls] bc=0 isBypassOn=true| real=292112 virt=12814 notrack=195073 | touchRes=5614(eff=4962,ineff=652) resetRes=128(ineff=79,eff=49) | bc++=731 bc--=5011 inv=23453
[DSB @ 600000 calls] bc=0 isBypassOn=true| real=392111 virt=12814 notrack=195074 | touchRes=5736(eff=5084,ineff=652) resetRes=128(ineff=79,eff=49) | bc++=731 bc--=5133 inv=23454
[DSB @ 700000 calls] bc=0 isBypassOn=true| real=492111 virt=12814 notrack=195074 | touchRes=5743(eff=5091,ineff=652) resetRes=128(ineff=79,eff=49) | bc++=731 bc--=5140 inv=23454
[DSB @ 800000 calls] bc=8 isBypassOn=false| real=570140 virt=14145 notrack=215714 | touchRes=5826(eff=5098,ineff=728) resetRes=294(ineff=202,eff=92) | bc++=930 bc--=5190 inv=25491
[DSB @ 900000 calls] bc=0 isBypassOn=true| real=663716 virt=14571 notrack=221712 | touchRes=7561(eff=6816,ineff=745) resetRes=434(ineff=326,eff=108) | bc++=1071 bc--=6924 inv=27446
src/sim/simulate.cc:194: info: Entering event queue @ 27944421785500.  Starting simulation...
Switching CPUS @ tick 27944421785500
Simulation ends instruction count:250000000
switching cpus
**** REAL SIMULATION ****
src/sim/simulate.cc:194: info: Entering event queue @ 27944421936750.  Starting simulation...
[DSB @ 1000000 calls] bc=0 isBypassOn=true| real=748068 virt=15536 notrack=236395 | touchRes=8560(eff=7814,ineff=746) resetRes=450(ineff=336,eff=114) | bc++=1082 bc--=7928 inv=29399
[DSB @ 1100000 calls] bc=0 isBypassOn=true| real=848066 virt=15536 notrack=236397 | touchRes=8804(eff=8058,ineff=746) resetRes=450(ineff=336,eff=114) | bc++=1082 bc--=8172 inv=29401
[DSB @ 1200000 calls] bc=8 isBypassOn=true| real=940665 virt=16005 notrack=243329 | touchRes=8828(eff=8075,ineff=753) resetRes=534(ineff=416,eff=118) | bc++=1169 bc--=8193 inv=30645
[DSB @ 1300000 calls] bc=0 isBypassOn=true| real=972415 virt=20319 notrack=307265 | touchRes=9854(eff=9098,ineff=756) resetRes=540(ineff=416,eff=124) | bc++=1172 bc--=9222 inv=35187
[DSB @ 1400000 calls] bc=0 isBypassOn=true| real=1001903 virt=24668 notrack=373428 | touchRes=10786(eff=10030,ineff=756) resetRes=554(ineff=424,eff=130) | bc++=1180 bc--=10160 inv=40927
[DSB @ 1500000 calls] bc=0 isBypassOn=true| real=1086852 virt=25622 notrack=387525 | touchRes=12359(eff=11596,ineff=763) resetRes=565(ineff=430,eff=135) | bc++=1193 bc--=11731 inv=44282
[DSB @ 1600000 calls] bc=8 isBypassOn=false| real=1174560 virt=26410 notrack=399029 | touchRes=14147(eff=13380,ineff=767) resetRes=578(ineff=442,eff=136) | bc++=1209 bc--=13516 inv=47670
[DSB @ 1700000 calls] bc=0 isBypassOn=true| real=1212177 virt=30224 notrack=457598 | touchRes=16123(eff=15356,ineff=767) resetRes=613(ineff=464,eff=149) | bc++=1231 bc--=15505 inv=52727
[DSB @ 1800000 calls] bc=0 isBypassOn=true| real=1299194 virt=31050 notrack=469755 | touchRes=17118(eff=16348,ineff=770) resetRes=637(ineff=476,eff=161) | bc++=1246 bc--=16509 inv=55133
[DSB @ 1900000 calls] bc=1 isBypassOn=true| real=1389252 virt=31648 notrack=479099 | touchRes=18859(eff=18089,ineff=770) resetRes=646(ineff=484,eff=162) | bc++=1254 bc--=18251 inv=58150
[DSB @ 2000000 calls] bc=6 isBypassOn=true| real=1443873 virt=34524 notrack=521602 | touchRes=20744(eff=19966,ineff=778) resetRes=795(ineff=600,eff=195) | bc++=1378 bc--=20161 inv=64282
[DSB @ 2100000 calls] bc=8 isBypassOn=false| real=1471971 virt=38951 notrack=589077 | touchRes=21407(eff=20628,ineff=779) resetRes=827(ineff=625,eff=202) | bc++=1404 bc--=20830 inv=70220
[DSB @ 2200000 calls] bc=8 isBypassOn=false| real=1480764 virt=44701 notrack=674534 | touchRes=21840(eff=21059,ineff=781) resetRes=872(ineff=659,eff=213) | bc++=1440 bc--=21272 inv=77108
[DSB @ 2300000 calls] bc=0 isBypassOn=true| real=1514970 virt=48796 notrack=736233 | touchRes=22713(eff=21932,ineff=781) resetRes=877(ineff=659,eff=218) | bc++=1440 bc--=22150 inv=83163
[DSB @ 2400000 calls] bc=0 isBypassOn=true| real=1613011 virt=48939 notrack=738049 | touchRes=23552(eff=22771,ineff=781) resetRes=878(ineff=660,eff=218) | bc++=1441 bc--=22989 inv=84347
[DSB @ 2500000 calls] bc=0 isBypassOn=true| real=1713011 virt=48939 notrack=738049 | touchRes=23552(eff=22771,ineff=781) resetRes=878(ineff=660,eff=218) | bc++=1441 bc--=22989 inv=84347
[DSB @ 2600000 calls] bc=0 isBypassOn=true| real=1782050 virt=50873 notrack=767076 | touchRes=24463(eff=23676,ineff=787) resetRes=933(ineff=694,eff=239) | bc++=1481 bc--=23915 inv=89026
[DSB @ 2700000 calls] bc=0 isBypassOn=true| real=1882050 virt=50873 notrack=767076 | touchRes=24463(eff=23676,ineff=787) resetRes=933(ineff=694,eff=239) | bc++=1481 bc--=23915 inv=89026
[DSB @ 2800000 calls] bc=0 isBypassOn=true| real=1978841 virt=51054 notrack=770104 | touchRes=25703(eff=24916,ineff=787) resetRes=937(ineff=698,eff=239) | bc++=1485 bc--=25155 inv=91067
[DSB @ 2900000 calls] bc=8 isBypassOn=false| real=2060323 virt=52254 notrack=787422 | touchRes=26792(eff=26004,ineff=788) resetRes=993(ineff=748,eff=245) | bc++=1536 bc--=26249 inv=94123
[DSB @ 3000000 calls] bc=0 isBypassOn=true| real=2084764 virt=56920 notrack=858315 | touchRes=28420(eff=27632,ineff=788) resetRes=1016(ineff=762,eff=254) | bc++=1550 bc--=27886 inv=102169
[DSB @ 3100000 calls] bc=0 isBypassOn=true| real=2179027 virt=57259 notrack=863713 | touchRes=29938(eff=29150,ineff=788) resetRes=1024(ineff=770,eff=254) | bc++=1558 bc--=29404 inv=104063
[DSB @ 3200000 calls] bc=0 isBypassOn=true| real=2279024 virt=57259 notrack=863716 | touchRes=30364(eff=29576,ineff=788) resetRes=1024(ineff=770,eff=254) | bc++=1558 bc--=29830 inv=104066
[DSB @ 3300000 calls] bc=8 isBypassOn=false| real=2344651 virt=59391 notrack=895957 | touchRes=30913(eff=30125,ineff=788) resetRes=1078(ineff=823,eff=255) | bc++=1611 bc--=30380 inv=107523
[DSB @ 3400000 calls] bc=0 isBypassOn=true| real=2362252 virt=64480 notrack=973267 | touchRes=32452(eff=31662,ineff=790) resetRes=1177(ineff=908,eff=269) | bc++=1698 bc--=31931 inv=113899
Exiting @ tick 28116907497000 because a thread reached the max instruction count
