warn: The `get_runtime_isa` function is deprecated. Please migrate away from using this function.
warn: The se.py script is deprecated. It will be removed in future releases of  gem5.
warn: The `get_runtime_isa` function is deprecated. Please migrate away from using this function.
Global frequency set at 1000000000000 ticks per second
src/base/statistics.hh:279: warn: One of the stats is a legacy stat. Legacy stat is a stat that does not belong to any statistics::Group. Legacy stat is deprecated.
src/base/remote_gdb.cc:418: warn: Sockets disabled, not accepting gdb connections
src/sim/process.cc:396: warn: Checkpoints for pipes, device drivers and sockets do not work.
gem5 Simulator System.  https://www.gem5.org
gem5 is copyrighted software; use the --copyright option for details.

gem5 version 23.0.0.1
gem5 compiled Apr  6 2026 01:50:35
gem5 started Apr  6 2026 11:30:13
gem5 executing on b49ce2a326be, pid 194955
command line: /opt/gem5/build/X86/gem5.opt --outdir=/workspace/results_l3/2MB/policy0Config2/wrf /workspace/configs/run_spec_l3.py --rp-type=DSBRP --l3-size=2MB --l3-assoc=16 --cpu-type=DerivO3CPU --cmd=./wrf_s_base.gem5-x86 --options= --mem-size=8GB --maxinst=250000000 --caches --l2cache --l1d_size=32kB --l1i_size=32kB --l1d_assoc=8 --l1i_assoc=8 --l2_size=256kB --l2_assoc=8 --checkpoint-restore=1 --checkpoint-dir=/workspace/checkpoints/wrf/m5out --restore-with-cpu=AtomicSimpleCPU --standard-switch=1 --warmup-insts=50000000 --dsb-enable-bypass=true --dsb-enable-aging=false --dsb-bypass-counter=6 --dsb-virtual-bypass-counter=3 --dsb-random-promotion=0 --dsb-minimum-bypass-counter=12

info: Standard input is not a terminal, disabling listeners.
Replacement policy: DSBRP
L1I size: 32kB, assoc: 8
L1D size: 32kB, assoc: 8
L2 size: 256kB, assoc: 8
L3 size: 2MB, L3 assoc: 16
Switch at instruction count:1
src/sim/simulate.cc:194: info: Entering event queue @ 27778733914000.  Starting simulation...
src/sim/simulate.cc:194: info: Entering event queue @ 27778733915500.  Starting simulation...
src/sim/power_state.cc:105: warn: PowerState: Already in the requested power state, request ignored
Switched CPUS @ tick 27778733915500
switching cpus
Switch at instruction count:50000000
src/sim/simulate.cc:194: info: Entering event queue @ 27778733916000.  Starting simulation...
[DSB @ 100000 calls] bc=1 isBypassOn=true| real=51810 virt=5967 notrack=42222 | touchRes=6301(eff=3647,ineff=2654) resetRes=288(ineff=26,eff=262) | bc++=2680 bc--=3909 inv=3654
[DSB @ 200000 calls] bc=0 isBypassOn=true| real=121921 virt=9619 notrack=68459 | touchRes=12947(eff=10045,ineff=2902) resetRes=1216(ineff=785,eff=431) | bc++=3687 bc--=10476 inv=14943
[DSB @ 300000 calls] bc=7 isBypassOn=true| real=182253 virt=14408 notrack=103338 | touchRes=19229(eff=16232,ineff=2997) resetRes=1701(ineff=1074,eff=627) | bc++=4071 bc--=16859 inv=29095
[DSB @ 400000 calls] bc=8 isBypassOn=true| real=240635 virt=19601 notrack=139763 | touchRes=26261(eff=23112,ineff=3149) resetRes=2654(ineff=1756,eff=898) | bc++=4905 bc--=24010 inv=42358
[DSB @ 500000 calls] bc=0 isBypassOn=true| real=315148 virt=22884 notrack=161967 | touchRes=32395(eff=29225,ineff=3170) resetRes=3164(ineff=2046,eff=1118) | bc++=5216 bc--=30343 inv=50933
[DSB @ 600000 calls] bc=8 isBypassOn=true| real=386520 virt=26548 notrack=186931 | touchRes=40044(eff=36645,ineff=3399) resetRes=4038(ineff=2785,eff=1253) | bc++=6184 bc--=37898 inv=62685
[DSB @ 700000 calls] bc=8 isBypassOn=true| real=434304 virt=33122 notrack=232573 | touchRes=48305(eff=44149,ineff=4156) resetRes=5750(ineff=4105,eff=1645) | bc++=8261 bc--=45794 inv=75610
src/sim/simulate.cc:194: info: Entering event queue @ 27938648012500.  Starting simulation...
Switching CPUS @ tick 27938648012500
Simulation ends instruction count:250000000
switching cpus
**** REAL SIMULATION ****
src/sim/simulate.cc:194: info: Entering event queue @ 27938648247250.  Starting simulation...
[DSB @ 800000 calls] bc=0 isBypassOn=true| real=501603 virt=37198 notrack=261198 | touchRes=55413(eff=50840,ineff=4573) resetRes=7912(ineff=5730,eff=2182) | bc++=10303 bc--=53022 inv=83790
[DSB @ 900000 calls] bc=6 isBypassOn=true| real=565265 virt=41760 notrack=292974 | touchRes=66347(eff=60909,ineff=5438) resetRes=9592(ineff=6961,eff=2631) | bc++=12399 bc--=63540 inv=96585
[DSB @ 1000000 calls] bc=0 isBypassOn=true| real=634951 virt=45571 notrack=319477 | touchRes=72923(eff=66801,ineff=6122) resetRes=11549(ineff=8458,eff=3091) | bc++=14580 bc--=69892 inv=105427
[DSB @ 1100000 calls] bc=12 isBypassOn=false| real=680885 virt=52356 notrack=366758 | touchRes=82315(eff=75141,ineff=7174) resetRes=14295(ineff=10484,eff=3811) | bc++=17658 bc--=78952 inv=118509
[DSB @ 1200000 calls] bc=12 isBypassOn=false| real=743089 virt=57048 notrack=399862 | touchRes=87678(eff=79468,ineff=8210) resetRes=14523(ineff=10570,eff=3953) | bc++=18780 bc--=83421 inv=124763
[DSB @ 1300000 calls] bc=0 isBypassOn=true| real=807123 virt=61424 notrack=431452 | touchRes=97822(eff=89314,ineff=8508) resetRes=16851(ineff=12403,eff=4448) | bc++=20911 bc--=93762 inv=136030
[DSB @ 1400000 calls] bc=0 isBypassOn=true| real=895730 virt=62869 notrack=441400 | touchRes=104644(eff=95852,ineff=8792) resetRes=17705(ineff=13051,eff=4654) | bc++=21843 bc--=100506 inv=140522
[DSB @ 1500000 calls] bc=12 isBypassOn=false| real=950062 virt=68545 notrack=481392 | touchRes=112365(eff=103285,ineff=9080) resetRes=19582(ineff=14649,eff=4933) | bc++=23729 bc--=108218 inv=154967
[DSB @ 1600000 calls] bc=6 isBypassOn=true| real=993954 virt=75461 notrack=530584 | touchRes=116297(eff=106609,ineff=9688) resetRes=20568(ineff=15253,eff=5315) | bc++=24941 bc--=111924 inv=167908
[DSB @ 1700000 calls] bc=7 isBypassOn=true| real=1057488 virt=80003 notrack=562508 | touchRes=121777(eff=112067,ineff=9710) resetRes=21084(ineff=15685,eff=5399) | bc++=25395 bc--=117466 inv=179432
[DSB @ 1800000 calls] bc=1 isBypassOn=true| real=1111375 virt=85683 notrack=602941 | touchRes=130869(eff=120703,ineff=10166) resetRes=22135(ineff=16343,eff=5792) | bc++=26509 bc--=126495 inv=192196
[DSB @ 1900000 calls] bc=0 isBypassOn=true| real=1155805 virt=92618 notrack=651576 | touchRes=139653(eff=128283,ineff=11370) resetRes=23536(ineff=17393,eff=6143) | bc++=28763 bc--=134426 inv=203003
[DSB @ 2000000 calls] bc=12 isBypassOn=true| real=1205461 virt=98812 notrack=695726 | touchRes=141691(eff=130221,ineff=11470) resetRes=24692(ineff=18298,eff=6394) | bc++=29768 bc--=136615 inv=214680
[DSB @ 2100000 calls] bc=0 isBypassOn=true| real=1243948 virt=106359 notrack=749692 | touchRes=142472(eff=131002,ineff=11470) resetRes=24713(ineff=18298,eff=6415) | bc++=29768 bc--=137417 inv=221320
[DSB @ 2200000 calls] bc=0 isBypassOn=true| real=1337571 virt=107145 notrack=755283 | touchRes=145011(eff=133527,ineff=11484) resetRes=24865(ineff=18434,eff=6431) | bc++=29918 bc--=139958 inv=225027
[DSB @ 2300000 calls] bc=0 isBypassOn=true| real=1401010 virt=111698 notrack=787291 | touchRes=155127(eff=143424,ineff=11703) resetRes=26160(ineff=19392,eff=6768) | bc++=31095 bc--=150192 inv=238410
[DSB @ 2400000 calls] bc=3 isBypassOn=true| real=1460004 virt=116894 notrack=823101 | touchRes=165759(eff=153733,ineff=12026) resetRes=27640(ineff=20381,eff=7259) | bc++=32407 bc--=160992 inv=252912
[DSB @ 2500000 calls] bc=0 isBypassOn=true| real=1515521 virt=122513 notrack=861965 | touchRes=175199(eff=162714,ineff=12485) resetRes=29678(ineff=22027,eff=7651) | bc++=34512 bc--=170365 inv=266117
[DSB @ 2600000 calls] bc=12 isBypassOn=false| real=1550442 virt=130807 notrack=918750 | touchRes=183090(eff=169190,ineff=13900) resetRes=32168(ineff=24185,eff=7983) | bc++=38085 bc--=177173 inv=278442
[DSB @ 2700000 calls] bc=12 isBypassOn=false| real=1596929 virt=137514 notrack=965556 | touchRes=191637(eff=176750,ineff=14887) resetRes=33108(ineff=24888,eff=8220) | bc++=39775 bc--=184970 inv=290213
Exiting @ tick 28099234824500 because a thread reached the max instruction count
