warn: The `get_runtime_isa` function is deprecated. Please migrate away from using this function.
warn: The se.py script is deprecated. It will be removed in future releases of  gem5.
warn: The `get_runtime_isa` function is deprecated. Please migrate away from using this function.
Global frequency set at 1000000000000 ticks per second
src/base/statistics.hh:279: warn: One of the stats is a legacy stat. Legacy stat is a stat that does not belong to any statistics::Group. Legacy stat is deprecated.
src/base/remote_gdb.cc:418: warn: Sockets disabled, not accepting gdb connections
src/sim/process.cc:396: warn: Checkpoints for pipes, device drivers and sockets do not work.
gem5 Simulator System.  https://www.gem5.org
gem5 is copyrighted software; use the --copyright option for details.

gem5 version 23.0.0.1
gem5 compiled Apr  6 2026 01:50:35
gem5 started Apr  6 2026 13:05:39
gem5 executing on b49ce2a326be, pid 213115
command line: /opt/gem5/build/X86/gem5.opt --outdir=/workspace/results_l3/2MB/policy0Config3/pop2 /workspace/configs/run_spec_l3.py --rp-type=DSBRP --l3-size=2MB --l3-assoc=16 --cpu-type=DerivO3CPU --cmd=./speed_pop2_base.gem5-x86 --options= --mem-size=8GB --maxinst=250000000 --caches --l2cache --l1d_size=32kB --l1i_size=32kB --l1d_assoc=8 --l1i_assoc=8 --l2_size=256kB --l2_assoc=8 --checkpoint-restore=1 --checkpoint-dir=/workspace/checkpoints/pop2/m5out --restore-with-cpu=AtomicSimpleCPU --standard-switch=1 --warmup-insts=50000000 --dsb-enable-bypass=true --dsb-enable-aging=false --dsb-bypass-counter=3 --dsb-virtual-bypass-counter=3 --dsb-random-promotion=0 --dsb-minimum-bypass-counter=12

info: Standard input is not a terminal, disabling listeners.
Replacement policy: DSBRP
L1I size: 32kB, assoc: 8
L1D size: 32kB, assoc: 8
L2 size: 256kB, assoc: 8
L3 size: 2MB, L3 assoc: 16
Switch at instruction count:1
src/sim/simulate.cc:194: info: Entering event queue @ 28375057083500.  Starting simulation...
src/sim/simulate.cc:194: info: Entering event queue @ 28375057085000.  Starting simulation...
src/sim/power_state.cc:105: warn: PowerState: Already in the requested power state, request ignored
Switched CPUS @ tick 28375057085000
switching cpus
Switch at instruction count:50000000
src/sim/simulate.cc:194: info: Entering event queue @ 28375057086000.  Starting simulation...
[DSB @ 100000 calls] bc=12 isBypassOn=false| real=15227 virt=10532 notrack=74240 | touchRes=7585(eff=3208,ineff=4377) resetRes=1779(ineff=1237,eff=542) | bc++=5614 bc--=3750 inv=7522
[DSB @ 200000 calls] bc=12 isBypassOn=false| real=15393 virt=22900 notrack=161706 | touchRes=11654(eff=3275,ineff=8379) resetRes=2941(ineff=1270,eff=1671) | bc++=9649 bc--=4946 inv=14095
src/sim/simulate.cc:194: info: Entering event queue @ 28519311334500.  Starting simulation...
Switching CPUS @ tick 28519311334500
Simulation ends instruction count:250000000
switching cpus
**** REAL SIMULATION ****
src/sim/simulate.cc:194: info: Entering event queue @ 28519311645750.  Starting simulation...
[DSB @ 300000 calls] bc=12 isBypassOn=false| real=17239 virt=35125 notrack=247635 | touchRes=16424(eff=3757,ineff=12667) resetRes=4256(ineff=1536,eff=2720) | bc++=14203 bc--=6477 inv=20645
[DSB @ 400000 calls] bc=12 isBypassOn=true| real=19267 virt=47426 notrack=333306 | touchRes=21339(eff=4259,ineff=17080) resetRes=5729(ineff=1917,eff=3812) | bc++=18997 bc--=8071 inv=26968
[DSB @ 500000 calls] bc=4 isBypassOn=true| real=50893 virt=56103 notrack=393003 | touchRes=28628(eff=9810,ineff=18818) resetRes=7806(ineff=3287,eff=4519) | bc++=22105 bc--=14329 inv=37955
[DSB @ 600000 calls] bc=12 isBypassOn=false| real=121347 virt=59744 notrack=418908 | touchRes=36877(eff=17810,ineff=19067) resetRes=9034(ineff=4209,eff=4825) | bc++=23276 bc--=22635 inv=49510
[DSB @ 700000 calls] bc=0 isBypassOn=true| real=165912 virt=66709 notrack=467378 | touchRes=46299(eff=26498,ineff=19801) resetRes=12885(ineff=7418,eff=5467) | bc++=27219 bc--=31965 inv=63599
[DSB @ 800000 calls] bc=1 isBypassOn=true| real=220967 virt=72338 notrack=506694 | touchRes=52836(eff=32852,ineff=19984) resetRes=15231(ineff=9377,eff=5854) | bc++=29361 bc--=38706 inv=79464
[DSB @ 900000 calls] bc=0 isBypassOn=true| real=280993 virt=77312 notrack=541694 | touchRes=59316(eff=39132,ineff=20184) resetRes=15809(ineff=9800,eff=6009) | bc++=29984 bc--=45141 inv=90270
[DSB @ 1000000 calls] bc=12 isBypassOn=false| real=361198 virt=79784 notrack=559017 | touchRes=63010(eff=42789,ineff=20221) resetRes=16539(ineff=10376,eff=6163) | bc++=30597 bc--=48952 inv=97098
[DSB @ 1100000 calls] bc=6 isBypassOn=true| real=437538 virt=82701 notrack=579760 | touchRes=70220(eff=49951,ineff=20269) resetRes=17216(ineff=10743,eff=6473) | bc++=31012 bc--=56424 inv=103940
[DSB @ 1200000 calls] bc=8 isBypassOn=true| real=468085 virt=91354 notrack=640560 | touchRes=77614(eff=55730,ineff=21884) resetRes=19912(ineff=12820,eff=7092) | bc++=34704 bc--=62822 inv=117157
[DSB @ 1300000 calls] bc=12 isBypassOn=false| real=468174 virt=103856 notrack=727969 | touchRes=81879(eff=55760,ineff=26119) resetRes=21095(ineff=12876,eff=8219) | bc++=38995 bc--=63979 inv=123478
[DSB @ 1400000 calls] bc=12 isBypassOn=false| real=469248 virt=116156 notrack=814595 | touchRes=86656(eff=56081,ineff=30575) resetRes=22345(ineff=13091,eff=9254) | bc++=43666 bc--=65335 inv=129650
[DSB @ 1500000 calls] bc=12 isBypassOn=false| real=470465 virt=128582 notrack=900952 | touchRes=91582(eff=56486,ineff=35096) resetRes=23624(ineff=13202,eff=10422) | bc++=48298 bc--=66908 inv=135969
[DSB @ 1600000 calls] bc=1 isBypassOn=true| real=507622 virt=136445 notrack=955932 | touchRes=96855(eff=59960,ineff=36895) resetRes=24818(ineff=13818,eff=11000) | bc++=50713 bc--=70960 inv=145269
[DSB @ 1700000 calls] bc=0 isBypassOn=true| real=559643 virt=142575 notrack=997781 | touchRes=104230(eff=66469,ineff=37761) resetRes=26203(ineff=14820,eff=11383) | bc++=52581 bc--=77852 inv=156541
[DSB @ 1800000 calls] bc=0 isBypassOn=true| real=609953 virt=148807 notrack=1041239 | touchRes=113082(eff=74750,ineff=38332) resetRes=29406(ineff=17469,eff=11937) | bc++=55801 bc--=86687 inv=171245
[DSB @ 1900000 calls] bc=12 isBypassOn=false| real=664194 virt=154485 notrack=1081320 | touchRes=118985(eff=80444,ineff=38541) resetRes=30980(ineff=18692,eff=12288) | bc++=57233 bc--=92732 inv=186409
Exiting @ tick 28695996638000 because a thread reached the max instruction count
