warn: The `get_runtime_isa` function is deprecated. Please migrate away from using this function.
warn: The se.py script is deprecated. It will be removed in future releases of  gem5.
warn: The `get_runtime_isa` function is deprecated. Please migrate away from using this function.
Global frequency set at 1000000000000 ticks per second
src/base/statistics.hh:279: warn: One of the stats is a legacy stat. Legacy stat is a stat that does not belong to any statistics::Group. Legacy stat is deprecated.
src/base/remote_gdb.cc:418: warn: Sockets disabled, not accepting gdb connections
src/sim/process.cc:396: warn: Checkpoints for pipes, device drivers and sockets do not work.
gem5 Simulator System.  https://www.gem5.org
gem5 is copyrighted software; use the --copyright option for details.

gem5 version 23.0.0.1
gem5 compiled Apr  6 2026 01:50:35
gem5 started Apr  6 2026 05:28:03
gem5 executing on b49ce2a326be, pid 133420
command line: /opt/gem5/build/X86/gem5.opt --outdir=/workspace/results_l3/1MB/policy0Config3/pop2 /workspace/configs/run_spec_l3.py --rp-type=DSBRP --l3-size=1MB --l3-assoc=16 --cpu-type=DerivO3CPU --cmd=./speed_pop2_base.gem5-x86 --options= --mem-size=8GB --maxinst=250000000 --caches --l2cache --l1d_size=32kB --l1i_size=32kB --l1d_assoc=8 --l1i_assoc=8 --l2_size=256kB --l2_assoc=8 --checkpoint-restore=1 --checkpoint-dir=/workspace/checkpoints/pop2/m5out --restore-with-cpu=AtomicSimpleCPU --standard-switch=1 --warmup-insts=50000000 --dsb-enable-bypass=true --dsb-enable-aging=false --dsb-bypass-counter=3 --dsb-virtual-bypass-counter=3 --dsb-random-promotion=0 --dsb-minimum-bypass-counter=12

info: Standard input is not a terminal, disabling listeners.
Replacement policy: DSBRP
L1I size: 32kB, assoc: 8
L1D size: 32kB, assoc: 8
L2 size: 256kB, assoc: 8
L3 size: 1MB, L3 assoc: 16
Switch at instruction count:1
src/sim/simulate.cc:194: info: Entering event queue @ 28375057083500.  Starting simulation...
src/sim/simulate.cc:194: info: Entering event queue @ 28375057085000.  Starting simulation...
src/sim/power_state.cc:105: warn: PowerState: Already in the requested power state, request ignored
Switched CPUS @ tick 28375057085000
switching cpus
Switch at instruction count:50000000
src/sim/simulate.cc:194: info: Entering event queue @ 28375057086000.  Starting simulation...
[DSB @ 100000 calls] bc=2 isBypassOn=true| real=45280 virt=6755 notrack=47964 | touchRes=6062(eff=4675,ineff=1387) resetRes=1044(ineff=820,eff=224) | bc++=2207 bc--=4899 inv=8625
[DSB @ 200000 calls] bc=4 isBypassOn=true| real=100254 virt=12280 notrack=87465 | touchRes=12584(eff=10807,ineff=1777) resetRes=2301(ineff=1832,eff=469) | bc++=3609 bc--=11276 inv=21076
[DSB @ 300000 calls] bc=11 isBypassOn=true| real=127062 virt=21518 notrack=151419 | touchRes=18317(eff=15561,ineff=2756) resetRes=3860(ineff=2848,eff=1012) | bc++=5604 bc--=16573 inv=33106
src/sim/simulate.cc:194: info: Entering event queue @ 28523995852500.  Starting simulation...
Switching CPUS @ tick 28523995852500
Simulation ends instruction count:250000000
switching cpus
**** REAL SIMULATION ****
src/sim/simulate.cc:194: info: Entering event queue @ 28523996097500.  Starting simulation...
[DSB @ 400000 calls] bc=11 isBypassOn=true| real=147208 virt=31511 notrack=221280 | touchRes=23131(eff=19118,ineff=4013) resetRes=5555(ineff=3959,eff=1596) | bc++=7972 bc--=20714 inv=44388
[DSB @ 500000 calls] bc=12 isBypassOn=false| real=162003 virt=42360 notrack=295636 | touchRes=27735(eff=22199,ineff=5536) resetRes=7132(ineff=4898,eff=2234) | bc++=10434 bc--=24433 inv=55216
[DSB @ 600000 calls] bc=0 isBypassOn=true| real=190989 virt=51208 notrack=357802 | touchRes=31000(eff=24449,ineff=6551) resetRes=8145(ineff=5432,eff=2713) | bc++=11983 bc--=27162 inv=63970
[DSB @ 700000 calls] bc=0 isBypassOn=true| real=221058 virt=60004 notrack=418937 | touchRes=31576(eff=25016,ineff=6560) resetRes=8440(ineff=5712,eff=2728) | bc++=12272 bc--=27744 inv=72440
[DSB @ 800000 calls] bc=12 isBypassOn=true| real=275984 virt=65545 notrack=458470 | touchRes=33089(eff=26521,ineff=6568) resetRes=8605(ineff=5874,eff=2731) | bc++=12442 bc--=29252 inv=79169
[DSB @ 900000 calls] bc=1 isBypassOn=true| real=307781 virt=74149 notrack=518069 | touchRes=34330(eff=27742,ineff=6588) resetRes=8779(ineff=6012,eff=2767) | bc++=12600 bc--=30509 inv=89703
[DSB @ 1000000 calls] bc=0 isBypassOn=true| real=360462 virt=80051 notrack=559486 | touchRes=36719(eff=30106,ineff=6613) resetRes=9073(ineff=6249,eff=2824) | bc++=12862 bc--=32930 inv=100610
[DSB @ 1100000 calls] bc=0 isBypassOn=true| real=456270 virt=80548 notrack=563181 | touchRes=38203(eff=31590,ineff=6613) resetRes=9075(ineff=6251,eff=2824) | bc++=12864 bc--=34414 inv=103060
[DSB @ 1200000 calls] bc=0 isBypassOn=true| real=548239 virt=81540 notrack=570220 | touchRes=40474(eff=33856,ineff=6618) resetRes=9087(ineff=6259,eff=2828) | bc++=12877 bc--=36684 inv=106916
[DSB @ 1300000 calls] bc=0 isBypassOn=true| real=643672 virt=82112 notrack=574215 | touchRes=41695(eff=35077,ineff=6618) resetRes=9097(ineff=6267,eff=2830) | bc++=12885 bc--=37907 inv=109467
[DSB @ 1400000 calls] bc=7 isBypassOn=true| real=686523 virt=89197 notrack=624279 | touchRes=45734(eff=38885,ineff=6849) resetRes=9631(ineff=6611,eff=3020) | bc++=13460 bc--=41905 inv=120388
[DSB @ 1500000 calls] bc=4 isBypassOn=true| real=714320 virt=98380 notrack=687299 | touchRes=50853(eff=43206,ineff=7647) resetRes=11149(ineff=7623,eff=3526) | bc++=15270 bc--=46732 inv=132387
[DSB @ 1600000 calls] bc=12 isBypassOn=false| real=748476 virt=106472 notrack=745051 | touchRes=57951(eff=49281,ineff=8670) resetRes=13366(ineff=9337,eff=4029) | bc++=18007 bc--=53310 inv=145316
[DSB @ 1700000 calls] bc=0 isBypassOn=true| real=764790 virt=116978 notrack=818231 | touchRes=62758(eff=52458,ineff=10300) resetRes=14982(ineff=10214,eff=4768) | bc++=20514 bc--=57226 inv=156074
[DSB @ 1800000 calls] bc=9 isBypassOn=true| real=781240 virt=127336 notrack=891423 | touchRes=67276(eff=55349,ineff=11927) resetRes=16675(ineff=11208,eff=5467) | bc++=23135 bc--=60816 inv=166688
[DSB @ 1900000 calls] bc=10 isBypassOn=true| real=816885 virt=135436 notrack=947678 | touchRes=69095(eff=56625,ineff=12470) resetRes=17356(ineff=11627,eff=5729) | bc++=24097 bc--=62354 inv=175356
[DSB @ 2000000 calls] bc=0 isBypassOn=true| real=857577 virt=142827 notrack=999595 | touchRes=70791(eff=58314,ineff=12477) resetRes=17372(ineff=11631,eff=5741) | bc++=24108 bc--=64055 inv=182841
[DSB @ 2100000 calls] bc=8 isBypassOn=true| real=874590 virt=153181 notrack=1072228 | touchRes=70805(eff=58317,ineff=12488) resetRes=17543(ineff=11795,eff=5748) | bc++=24283 bc--=64065 inv=192613
[DSB @ 2200000 calls] bc=0 isBypassOn=true| real=926356 virt=159107 notrack=1114536 | touchRes=73165(eff=60636,ineff=12529) resetRes=17709(ineff=11886,eff=5823) | bc++=24415 bc--=66459 inv=202300
Exiting @ tick 28705332861000 because a thread reached the max instruction count
