warn: The `get_runtime_isa` function is deprecated. Please migrate away from using this function.
warn: The se.py script is deprecated. It will be removed in future releases of  gem5.
warn: The `get_runtime_isa` function is deprecated. Please migrate away from using this function.
Global frequency set at 1000000000000 ticks per second
src/base/statistics.hh:279: warn: One of the stats is a legacy stat. Legacy stat is a stat that does not belong to any statistics::Group. Legacy stat is deprecated.
src/base/remote_gdb.cc:418: warn: Sockets disabled, not accepting gdb connections
src/sim/process.cc:396: warn: Checkpoints for pipes, device drivers and sockets do not work.
gem5 Simulator System.  https://www.gem5.org
gem5 is copyrighted software; use the --copyright option for details.

gem5 version 23.0.0.1
gem5 compiled Apr  6 2026 01:50:35
gem5 started Apr  6 2026 08:20:02
gem5 executing on b49ce2a326be, pid 161813
command line: /opt/gem5/build/X86/gem5.opt --outdir=/workspace/results_l3/1MB/policy1Config3/gcc /workspace/configs/run_spec_l3.py --rp-type=DSBRP --l3-size=1MB --l3-assoc=16 --cpu-type=DerivO3CPU --cmd=./sgcc_base.gem5-x86 '--options=gcc-pp.c -O5 -fipa-pta -o gcc-pp.opts-O5_-fipa-pta.s' --mem-size=8GB --maxinst=250000000 --caches --l2cache --l1d_size=32kB --l1i_size=32kB --l1d_assoc=8 --l1i_assoc=8 --l2_size=256kB --l2_assoc=8 --checkpoint-restore=1 --checkpoint-dir=/workspace/checkpoints/gcc/m5out --restore-with-cpu=AtomicSimpleCPU --standard-switch=1 --warmup-insts=50000000 --dsb-enable-bypass=true --dsb-enable-aging=true --dsb-bypass-counter=3 --dsb-virtual-bypass-counter=3 --dsb-random-promotion=4 --dsb-minimum-bypass-counter=12

info: Standard input is not a terminal, disabling listeners.
Replacement policy: DSBRP
L1I size: 32kB, assoc: 8
L1D size: 32kB, assoc: 8
L2 size: 256kB, assoc: 8
L3 size: 1MB, L3 assoc: 16
Switch at instruction count:1
src/sim/simulate.cc:194: info: Entering event queue @ 27766339396500.  Starting simulation...
src/sim/simulate.cc:194: info: Entering event queue @ 27766339398500.  Starting simulation...
src/sim/power_state.cc:105: warn: PowerState: Already in the requested power state, request ignored
Switched CPUS @ tick 27766339398500
switching cpus
Switch at instruction count:50000000
src/sim/simulate.cc:194: info: Entering event queue @ 27766339399000.  Starting simulation...
[DSB @ 100000 calls] bc=12 isBypassOn=false| real=3677 virt=11962 notrack=84360 | touchRes=8884(eff=607,ineff=8277) resetRes=992(ineff=163,eff=829) | bc++=8440 bc--=1436 inv=860
src/sim/simulate.cc:194: info: Entering event queue @ 27884771719500.  Starting simulation...
Switching CPUS @ tick 27884771719500
Simulation ends instruction count:250000000
switching cpus
**** REAL SIMULATION ****
src/sim/simulate.cc:194: info: Entering event queue @ 27884771939500.  Starting simulation...
[DSB @ 200000 calls] bc=12 isBypassOn=false| real=3692 virt=24606 notrack=171701 | touchRes=18415(eff=611,ineff=17804) resetRes=1901(ineff=167,eff=1734) | bc++=17971 bc--=2345 inv=1386
[DSB @ 300000 calls] bc=12 isBypassOn=false| real=4629 virt=37099 notrack=258271 | touchRes=27281(eff=770,ineff=26511) resetRes=3364(ineff=320,eff=3044) | bc++=26831 bc--=3814 inv=2343
[DSB @ 400000 calls] bc=12 isBypassOn=true| real=4652 virt=49591 notrack=345756 | touchRes=36163(eff=771,ineff=35392) resetRes=4474(ineff=330,eff=4144) | bc++=35722 bc--=4915 inv=2836
[DSB @ 500000 calls] bc=12 isBypassOn=false| real=8611 virt=61615 notrack=429773 | touchRes=44583(eff=1236,ineff=43347) resetRes=6152(ineff=596,eff=5556) | bc++=43943 bc--=6792 inv=5095
[DSB @ 600000 calls] bc=12 isBypassOn=false| real=8629 virt=74205 notrack=517165 | touchRes=54188(eff=1236,ineff=52952) resetRes=7010(ineff=598,eff=6412) | bc++=53550 bc--=7648 inv=5549
Exiting @ tick 28066267499000 because a thread reached the max instruction count
