warn: The `get_runtime_isa` function is deprecated. Please migrate away from using this function.
warn: The se.py script is deprecated. It will be removed in future releases of  gem5.
warn: The `get_runtime_isa` function is deprecated. Please migrate away from using this function.
Global frequency set at 1000000000000 ticks per second
src/base/statistics.hh:279: warn: One of the stats is a legacy stat. Legacy stat is a stat that does not belong to any statistics::Group. Legacy stat is deprecated.
src/base/remote_gdb.cc:418: warn: Sockets disabled, not accepting gdb connections
src/sim/process.cc:396: warn: Checkpoints for pipes, device drivers and sockets do not work.
gem5 Simulator System.  https://www.gem5.org
gem5 is copyrighted software; use the --copyright option for details.

gem5 version 23.0.0.1
gem5 compiled Apr  6 2026 01:50:35
gem5 started Apr  7 2026 09:25:15
gem5 executing on b49ce2a326be, pid 75534
command line: /opt/gem5/build/X86/gem5.opt --outdir=/workspace/results_l3/4MB/policy0Config1/wrf /workspace/configs/run_spec_l3.py --rp-type=DSBRP --l3-size=4MB --l3-assoc=16 --cpu-type=DerivO3CPU --cmd=./wrf_s_base.gem5-x86 --options= --mem-size=8GB --maxinst=250000000 --caches --l2cache --l1d_size=32kB --l1i_size=32kB --l1d_assoc=8 --l1i_assoc=8 --l2_size=256kB --l2_assoc=8 --checkpoint-restore=1 --checkpoint-dir=/workspace/checkpoints/wrf/m5out --restore-with-cpu=AtomicSimpleCPU --standard-switch=1 --warmup-insts=50000000 --dsb-enable-bypass=true --dsb-enable-aging=false --dsb-bypass-counter=6 --dsb-virtual-bypass-counter=4 --dsb-random-promotion=0 --dsb-minimum-bypass-counter=8

info: Standard input is not a terminal, disabling listeners.
Replacement policy: DSBRP
L1I size: 32kB, assoc: 8
L1D size: 32kB, assoc: 8
L2 size: 256kB, assoc: 8
L3 size: 4MB, L3 assoc: 16
Switch at instruction count:1
src/sim/simulate.cc:194: info: Entering event queue @ 27778733914000.  Starting simulation...
src/sim/simulate.cc:194: info: Entering event queue @ 27778733915500.  Starting simulation...
src/sim/power_state.cc:105: warn: PowerState: Already in the requested power state, request ignored
Switched CPUS @ tick 27778733915500
switching cpus
Switch at instruction count:50000000
src/sim/simulate.cc:194: info: Entering event queue @ 27778733916000.  Starting simulation...
[DSB @ 100000 calls] bc=8 isBypassOn=false| real=60 virt=6216 notrack=93723 | touchRes=5258(eff=47,ineff=5211) resetRes=12(ineff=9,eff=3) | bc++=5220 bc--=50 inv=659
[DSB @ 200000 calls] bc=1 isBypassOn=true| real=31833 virt=10518 notrack=157648 | touchRes=13477(eff=7003,ineff=6474) resetRes=3751(ineff=3445,eff=306) | bc++=9919 bc--=7309 inv=11610
[DSB @ 300000 calls] bc=0 isBypassOn=true| real=72852 virt=14217 notrack=212930 | touchRes=22405(eff=14877,ineff=7528) resetRes=8855(ineff=8127,eff=728) | bc++=15655 bc--=15605 inv=23298
[DSB @ 400000 calls] bc=0 isBypassOn=true| real=125091 virt=17170 notrack=257738 | touchRes=28494(eff=19986,ineff=8508) resetRes=10945(ineff=9952,eff=993) | bc++=18460 bc--=20979 inv=33971
[DSB @ 500000 calls] bc=8 isBypassOn=true| real=160272 virt=21140 notrack=318587 | touchRes=37479(eff=27166,ineff=10313) resetRes=14553(ineff=13201,eff=1352) | bc++=23514 bc--=28518 inv=47382
src/sim/simulate.cc:194: info: Entering event queue @ 27931910484500.  Starting simulation...
Switching CPUS @ tick 27931910484500
Simulation ends instruction count:250000000
switching cpus
**** REAL SIMULATION ****
src/sim/simulate.cc:194: info: Entering event queue @ 27931910570750.  Starting simulation...
[DSB @ 600000 calls] bc=0 isBypassOn=true| real=208147 virt=24493 notrack=367359 | touchRes=48344(eff=36720,ineff=11624) resetRes=17259(ineff=15452,eff=1807) | bc++=27076 bc--=38527 inv=58505
[DSB @ 700000 calls] bc=8 isBypassOn=false| real=252934 virt=27884 notrack=419181 | touchRes=58365(eff=45630,ineff=12735) resetRes=23944(ineff=21832,eff=2112) | bc++=34567 bc--=47742 inv=71106
[DSB @ 800000 calls] bc=0 isBypassOn=true| real=280466 virt=32396 notrack=487137 | touchRes=66202(eff=50593,ineff=15609) resetRes=26896(ineff=24329,eff=2567) | bc++=39938 bc--=53160 inv=77715
[DSB @ 900000 calls] bc=8 isBypassOn=false| real=300286 virt=37422 notrack=562291 | touchRes=72965(eff=54986,ineff=17979) resetRes=29205(ineff=26307,eff=2898) | bc++=44286 bc--=57884 inv=85887
[DSB @ 1000000 calls] bc=0 isBypassOn=true| real=332184 virt=41674 notrack=626141 | touchRes=83178(eff=62949,ineff=20229) resetRes=31265(ineff=28132,eff=3133) | bc++=48361 bc--=66082 inv=95323
[DSB @ 1100000 calls] bc=8 isBypassOn=false| real=352455 virt=46673 notrack=700871 | touchRes=89456(eff=67396,ineff=22060) resetRes=33100(ineff=29780,eff=3320) | bc++=51840 bc--=70716 inv=103809
[DSB @ 1200000 calls] bc=2 isBypassOn=true| real=392691 virt=50430 notrack=756878 | touchRes=97150(eff=74253,ineff=22897) resetRes=38360(ineff=34621,eff=3739) | bc++=57518 bc--=77992 inv=116849
[DSB @ 1300000 calls] bc=8 isBypassOn=false| real=429783 virt=54337 notrack=815879 | touchRes=107850(eff=83872,ineff=23978) resetRes=41883(ineff=37991,eff=3892) | bc++=61969 bc--=87764 inv=129795
[DSB @ 1400000 calls] bc=0 isBypassOn=true| real=447219 virt=59517 notrack=893263 | touchRes=115112(eff=88314,ineff=26798) resetRes=44330(ineff=40270,eff=4060) | bc++=67068 bc--=92374 inv=137116
[DSB @ 1500000 calls] bc=0 isBypassOn=true| real=493452 virt=62888 notrack=943659 | touchRes=121594(eff=94094,ineff=27500) resetRes=47200(ineff=42875,eff=4325) | bc++=70375 bc--=98419 inv=146990
[DSB @ 1600000 calls] bc=0 isBypassOn=true| real=571543 virt=64256 notrack=964200 | touchRes=126542(eff=98883,ineff=27659) resetRes=49108(ineff=44571,eff=4537) | bc++=72230 bc--=103420 inv=153534
[DSB @ 1700000 calls] bc=3 isBypassOn=true| real=631014 virt=66758 notrack=1002227 | touchRes=133499(eff=105052,ineff=28447) resetRes=50619(ineff=45855,eff=4764) | bc++=74302 bc--=109816 inv=167185
[DSB @ 1800000 calls] bc=8 isBypassOn=false| real=673772 virt=70302 notrack=1055925 | touchRes=142456(eff=112653,ineff=29803) resetRes=52994(ineff=48034,eff=4960) | bc++=77837 bc--=117613 inv=179729
[DSB @ 1900000 calls] bc=8 isBypassOn=false| real=704871 virt=74587 notrack=1120541 | touchRes=150571(eff=119198,ineff=31373) resetRes=56424(ineff=51165,eff=5259) | bc++=82538 bc--=124457 inv=190809
[DSB @ 2000000 calls] bc=8 isBypassOn=false| real=732522 virt=79152 notrack=1188325 | touchRes=156203(eff=122649,ineff=33554) resetRes=57042(ineff=51605,eff=5437) | bc++=85159 bc--=128086 inv=199121
Exiting @ tick 28083419772000 because a thread reached the max instruction count
